
---------- Begin Simulation Statistics ----------
simSeconds                                  13.628612                       # Number of seconds simulated (Second)
simTicks                                 13628612450961                       # Number of ticks simulated (Tick)
finalTick                                13628612450961                       # Number of ticks from beginning of simulation (restored from checkpoints and never reset) (Tick)
simFreq                                  1000000000000                       # The number of ticks per simulated second ((Tick/Second))
hostSeconds                                 130811.14                       # Real time elapsed on the host (Second)
hostTickRate                                104185408                       # The number of ticks simulated per host second (ticks/s) ((Tick/Second))
hostMemory                                   28835104                       # Number of bytes of host memory used (Byte)
simInsts                                   5402396368                       # Number of instructions simulated (Count)
simOps                                    12101686341                       # Number of ops (including micro ops) simulated (Count)
hostInstRate                                    41299                       # Simulator instruction rate (inst/s) ((Count/Second))
hostOpRate                                      92513                       # Simulator op (including micro ops) rate (op/s) ((Count/Second))
board.cache_hierarchy.ruby_system.m_outstandReqHistSeqr::bucket_size            2                       (Unspecified)
board.cache_hierarchy.ruby_system.m_outstandReqHistSeqr::max_bucket           19                       (Unspecified)
board.cache_hierarchy.ruby_system.m_outstandReqHistSeqr::samples   2953071669                       (Unspecified)
board.cache_hierarchy.ruby_system.m_outstandReqHistSeqr::mean     1.727984                       (Unspecified)
board.cache_hierarchy.ruby_system.m_outstandReqHistSeqr::gmean     1.441490                       (Unspecified)
board.cache_hierarchy.ruby_system.m_outstandReqHistSeqr::stdev     1.492593                       (Unspecified)
board.cache_hierarchy.ruby_system.m_outstandReqHistSeqr |  1819460162     61.61%     61.61% |   934229136     31.64%     93.25% |   131105012      4.44%     97.69% |    30397038      1.03%     98.72% |    13446036      0.46%     99.17% |     8957771      0.30%     99.48% |     6862958      0.23%     99.71% |     5441502      0.18%     99.89% |     3172054      0.11%    100.00% |           0      0.00%    100.00% (Unspecified)
board.cache_hierarchy.ruby_system.m_outstandReqHistSeqr::total   2953071669                       (Unspecified)
board.cache_hierarchy.ruby_system.m_latencyHistSeqr::bucket_size          512                       (Unspecified)
board.cache_hierarchy.ruby_system.m_latencyHistSeqr::max_bucket         5119                       (Unspecified)
board.cache_hierarchy.ruby_system.m_latencyHistSeqr::samples   2965000363                       (Unspecified)
board.cache_hierarchy.ruby_system.m_latencyHistSeqr::mean     3.453102                       (Unspecified)
board.cache_hierarchy.ruby_system.m_latencyHistSeqr::gmean     1.110288                       (Unspecified)
board.cache_hierarchy.ruby_system.m_latencyHistSeqr::stdev    24.959688                       (Unspecified)
board.cache_hierarchy.ruby_system.m_latencyHistSeqr |  2963976311     99.97%     99.97% |      950002      0.03%    100.00% |       69606      0.00%    100.00% |        4410      0.00%    100.00% |          26      0.00%    100.00% |           4      0.00%    100.00% |           4      0.00%    100.00% |           0      0.00%    100.00% |           0      0.00%    100.00% |           0      0.00%    100.00% (Unspecified)
board.cache_hierarchy.ruby_system.m_latencyHistSeqr::total   2965000363                       (Unspecified)
board.cache_hierarchy.ruby_system.m_hitLatencyHistSeqr::bucket_size           32                       (Unspecified)
board.cache_hierarchy.ruby_system.m_hitLatencyHistSeqr::max_bucket          319                       (Unspecified)
board.cache_hierarchy.ruby_system.m_hitLatencyHistSeqr::samples   2879731809                       (Unspecified)
board.cache_hierarchy.ruby_system.m_hitLatencyHistSeqr::mean     1.005240                       (Unspecified)
board.cache_hierarchy.ruby_system.m_hitLatencyHistSeqr::gmean     1.003379                       (Unspecified)
board.cache_hierarchy.ruby_system.m_hitLatencyHistSeqr::stdev     0.107710                       (Unspecified)
board.cache_hierarchy.ruby_system.m_hitLatencyHistSeqr |  2879731384    100.00%    100.00% |         321      0.00%    100.00% |          11      0.00%    100.00% |          68      0.00%    100.00% |           3      0.00%    100.00% |          21      0.00%    100.00% |           1      0.00%    100.00% |           0      0.00%    100.00% |           0      0.00%    100.00% |           0      0.00%    100.00% (Unspecified)
board.cache_hierarchy.ruby_system.m_hitLatencyHistSeqr::total   2879731809                       (Unspecified)
board.cache_hierarchy.ruby_system.m_missLatencyHistSeqr::bucket_size          512                       (Unspecified)
board.cache_hierarchy.ruby_system.m_missLatencyHistSeqr::max_bucket         5119                       (Unspecified)
board.cache_hierarchy.ruby_system.m_missLatencyHistSeqr::samples     85268554                       (Unspecified)
board.cache_hierarchy.ruby_system.m_missLatencyHistSeqr::mean    86.123521                       (Unspecified)
board.cache_hierarchy.ruby_system.m_missLatencyHistSeqr::gmean    33.919112                       (Unspecified)
board.cache_hierarchy.ruby_system.m_missLatencyHistSeqr::stdev   120.936444                       (Unspecified)
board.cache_hierarchy.ruby_system.m_missLatencyHistSeqr |    84244502     98.80%     98.80% |      950002      1.11%     99.91% |       69606      0.08%     99.99% |        4410      0.01%    100.00% |          26      0.00%    100.00% |           4      0.00%    100.00% |           4      0.00%    100.00% |           0      0.00%    100.00% |           0      0.00%    100.00% |           0      0.00%    100.00% (Unspecified)
board.cache_hierarchy.ruby_system.m_missLatencyHistSeqr::total     85268554                       (Unspecified)
board.cache_hierarchy.ruby_system.Directory_Controller.GETX     11671439      0.00%      0.00% (Unspecified)
board.cache_hierarchy.ruby_system.Directory_Controller.GETS     20570890      0.00%      0.00% (Unspecified)
board.cache_hierarchy.ruby_system.Directory_Controller.PUTX     11652765      0.00%      0.00% (Unspecified)
board.cache_hierarchy.ruby_system.Directory_Controller.PUTO_SHARERS         3663      0.00%      0.00% (Unspecified)
board.cache_hierarchy.ruby_system.Directory_Controller.Unblock      5933853      0.00%      0.00% (Unspecified)
board.cache_hierarchy.ruby_system.Directory_Controller.Last_Unblock     14651451      0.00%      0.00% (Unspecified)
board.cache_hierarchy.ruby_system.Directory_Controller.Exclusive_Unblock     12977580      0.00%      0.00% (Unspecified)
board.cache_hierarchy.ruby_system.Directory_Controller.Dirty_Writeback     11656428      0.00%      0.00% (Unspecified)
board.cache_hierarchy.ruby_system.Directory_Controller.Memory_Data_DMA        65835      0.00%      0.00% (Unspecified)
board.cache_hierarchy.ruby_system.Directory_Controller.Memory_Data_Cache     32241839      0.00%      0.00% (Unspecified)
board.cache_hierarchy.ruby_system.Directory_Controller.Memory_Ack     12962764      0.00%      0.00% (Unspecified)
board.cache_hierarchy.ruby_system.Directory_Controller.DMA_READ        75729      0.00%      0.00% (Unspecified)
board.cache_hierarchy.ruby_system.Directory_Controller.DMA_WRITE_LINE      1306336      0.00%      0.00% (Unspecified)
board.cache_hierarchy.ruby_system.Directory_Controller.DMA_ACK         9894      0.00%      0.00% (Unspecified)
board.cache_hierarchy.ruby_system.Directory_Controller.Data         9754      0.00%      0.00% (Unspecified)
board.cache_hierarchy.ruby_system.Directory_Controller.All_Acks      1306336      0.00%      0.00% (Unspecified)
board.cache_hierarchy.ruby_system.Directory_Controller.I.GETX      6805304      0.00%      0.00% (Unspecified)
board.cache_hierarchy.ruby_system.Directory_Controller.I.GETS      5933853      0.00%      0.00% (Unspecified)
board.cache_hierarchy.ruby_system.Directory_Controller.I.DMA_READ        51126      0.00%      0.00% (Unspecified)
board.cache_hierarchy.ruby_system.Directory_Controller.I.DMA_WRITE_LINE      1162910      0.00%      0.00% (Unspecified)
board.cache_hierarchy.ruby_system.Directory_Controller.S.GETX      4865940      0.00%      0.00% (Unspecified)
board.cache_hierarchy.ruby_system.Directory_Controller.S.GETS     14636742      0.00%      0.00% (Unspecified)
board.cache_hierarchy.ruby_system.Directory_Controller.S.DMA_READ        14709      0.00%      0.00% (Unspecified)
board.cache_hierarchy.ruby_system.Directory_Controller.S.DMA_WRITE_LINE       133672      0.00%      0.00% (Unspecified)
board.cache_hierarchy.ruby_system.Directory_Controller.M.PUTX     11652765      0.00%      0.00% (Unspecified)
board.cache_hierarchy.ruby_system.Directory_Controller.M.PUTO_SHARERS         3663      0.00%      0.00% (Unspecified)
board.cache_hierarchy.ruby_system.Directory_Controller.M.DMA_READ         9894      0.00%      0.00% (Unspecified)
board.cache_hierarchy.ruby_system.Directory_Controller.M.DMA_WRITE_LINE         9754      0.00%      0.00% (Unspecified)
board.cache_hierarchy.ruby_system.Directory_Controller.IS_M.Memory_Data_Cache      5933853      0.00%      0.00% (Unspecified)
board.cache_hierarchy.ruby_system.Directory_Controller.IS.Unblock      5933853      0.00%      0.00% (Unspecified)
board.cache_hierarchy.ruby_system.Directory_Controller.SS.Last_Unblock     14651451      0.00%      0.00% (Unspecified)
board.cache_hierarchy.ruby_system.Directory_Controller.SS.Memory_Data_DMA        14709      0.00%      0.00% (Unspecified)
board.cache_hierarchy.ruby_system.Directory_Controller.SS.Memory_Data_Cache     14636742      0.00%      0.00% (Unspecified)
board.cache_hierarchy.ruby_system.Directory_Controller.MM_M.Memory_Data_Cache     11671244      0.00%      0.00% (Unspecified)
board.cache_hierarchy.ruby_system.Directory_Controller.MM.Exclusive_Unblock     11671244      0.00%      0.00% (Unspecified)
board.cache_hierarchy.ruby_system.Directory_Controller.MI.Dirty_Writeback     11652765      0.00%      0.00% (Unspecified)
board.cache_hierarchy.ruby_system.Directory_Controller.MIS.Dirty_Writeback         3663      0.00%      0.00% (Unspecified)
board.cache_hierarchy.ruby_system.Directory_Controller.WBI.GETX          195      0.00%      0.00% (Unspecified)
board.cache_hierarchy.ruby_system.Directory_Controller.WBI.GETS          295      0.00%      0.00% (Unspecified)
board.cache_hierarchy.ruby_system.Directory_Controller.WBI.Memory_Ack     11652765      0.00%      0.00% (Unspecified)
board.cache_hierarchy.ruby_system.Directory_Controller.WBS.Memory_Ack         3663      0.00%      0.00% (Unspecified)
board.cache_hierarchy.ruby_system.Directory_Controller.XI_M.Memory_Data_DMA        51126      0.00%      0.00% (Unspecified)
board.cache_hierarchy.ruby_system.Directory_Controller.XI_U.Exclusive_Unblock      1306336      0.00%      0.00% (Unspecified)
board.cache_hierarchy.ruby_system.Directory_Controller.XI_U.Memory_Ack      1306336      0.00%      0.00% (Unspecified)
board.cache_hierarchy.ruby_system.Directory_Controller.XI_U.All_Acks      1306336      0.00%      0.00% (Unspecified)
board.cache_hierarchy.ruby_system.Directory_Controller.OI_D.Data         9754      0.00%      0.00% (Unspecified)
board.cache_hierarchy.ruby_system.Directory_Controller.MD.DMA_ACK         9894      0.00%      0.00% (Unspecified)
board.cache_hierarchy.ruby_system.DMA_Controller.ReadRequest |     2201831    100.00%    100.00% |           0      0.00%    100.00% (Unspecified)
board.cache_hierarchy.ruby_system.DMA_Controller.ReadRequest::total      2201831                       (Unspecified)
board.cache_hierarchy.ruby_system.DMA_Controller.WriteRequest |    41376518    100.00%    100.00% |           0      0.00%    100.00% (Unspecified)
board.cache_hierarchy.ruby_system.DMA_Controller.WriteRequest::total     41376518                       (Unspecified)
board.cache_hierarchy.ruby_system.DMA_Controller.Data |       75729    100.00%    100.00% |           0      0.00%    100.00% (Unspecified)
board.cache_hierarchy.ruby_system.DMA_Controller.Data::total        75729                       (Unspecified)
board.cache_hierarchy.ruby_system.DMA_Controller.DMA_Ack |     1306336    100.00%    100.00% |           0      0.00%    100.00% (Unspecified)
board.cache_hierarchy.ruby_system.DMA_Controller.DMA_Ack::total      1306336                       (Unspecified)
board.cache_hierarchy.ruby_system.DMA_Controller.Inv_Ack |      133672    100.00%    100.00% |           0      0.00%    100.00% (Unspecified)
board.cache_hierarchy.ruby_system.DMA_Controller.Inv_Ack::total       133672                       (Unspecified)
board.cache_hierarchy.ruby_system.DMA_Controller.All_Acks |     1306336    100.00%    100.00% |           0      0.00%    100.00% (Unspecified)
board.cache_hierarchy.ruby_system.DMA_Controller.All_Acks::total      1306336                       (Unspecified)
board.cache_hierarchy.ruby_system.DMA_Controller.READY.ReadRequest |       75729    100.00%    100.00% |           0      0.00%    100.00% (Unspecified)
board.cache_hierarchy.ruby_system.DMA_Controller.READY.ReadRequest::total        75729                       (Unspecified)
board.cache_hierarchy.ruby_system.DMA_Controller.READY.WriteRequest |     1306336    100.00%    100.00% |           0      0.00%    100.00% (Unspecified)
board.cache_hierarchy.ruby_system.DMA_Controller.READY.WriteRequest::total      1306336                       (Unspecified)
board.cache_hierarchy.ruby_system.DMA_Controller.BUSY_RD.ReadRequest |     2126102    100.00%    100.00% |           0      0.00%    100.00% (Unspecified)
board.cache_hierarchy.ruby_system.DMA_Controller.BUSY_RD.ReadRequest::total      2126102                       (Unspecified)
board.cache_hierarchy.ruby_system.DMA_Controller.BUSY_RD.Data |       75729    100.00%    100.00% |           0      0.00%    100.00% (Unspecified)
board.cache_hierarchy.ruby_system.DMA_Controller.BUSY_RD.Data::total        75729                       (Unspecified)
board.cache_hierarchy.ruby_system.DMA_Controller.BUSY_WR.WriteRequest |    40070182    100.00%    100.00% |           0      0.00%    100.00% (Unspecified)
board.cache_hierarchy.ruby_system.DMA_Controller.BUSY_WR.WriteRequest::total     40070182                       (Unspecified)
board.cache_hierarchy.ruby_system.DMA_Controller.BUSY_WR.DMA_Ack |     1306336    100.00%    100.00% |           0      0.00%    100.00% (Unspecified)
board.cache_hierarchy.ruby_system.DMA_Controller.BUSY_WR.DMA_Ack::total      1306336                       (Unspecified)
board.cache_hierarchy.ruby_system.DMA_Controller.BUSY_WR.Inv_Ack |      133672    100.00%    100.00% |           0      0.00%    100.00% (Unspecified)
board.cache_hierarchy.ruby_system.DMA_Controller.BUSY_WR.Inv_Ack::total       133672                       (Unspecified)
board.cache_hierarchy.ruby_system.DMA_Controller.BUSY_WR.All_Acks |     1306336    100.00%    100.00% |           0      0.00%    100.00% (Unspecified)
board.cache_hierarchy.ruby_system.DMA_Controller.BUSY_WR.All_Acks::total      1306336                       (Unspecified)
board.cache_hierarchy.ruby_system.L1Cache_Controller.Load |   523570457     37.59%     37.59% |   256773470     18.43%     56.02% |   127730870      9.17%     65.19% |   484821231     34.81%    100.00% (Unspecified)
board.cache_hierarchy.ruby_system.L1Cache_Controller.Load::total   1392896028                       (Unspecified)
board.cache_hierarchy.ruby_system.L1Cache_Controller.Ifetch |   233447782     26.76%     26.76% |   214339335     24.57%     51.33% |   102785494     11.78%     63.12% |   321737125     36.88%    100.00% (Unspecified)
board.cache_hierarchy.ruby_system.L1Cache_Controller.Ifetch::total    872309736                       (Unspecified)
board.cache_hierarchy.ruby_system.L1Cache_Controller.Store |   179485816     25.65%     25.65% |   149242296     21.33%     46.97% |   102223995     14.61%     61.58% |   268886115     38.42%    100.00% (Unspecified)
board.cache_hierarchy.ruby_system.L1Cache_Controller.Store::total    699838222                       (Unspecified)
board.cache_hierarchy.ruby_system.L1Cache_Controller.L1_Replacement |    12713791     15.66%     15.66% |    17424853     21.46%     37.13% |     9892796     12.19%     49.31% |    41149962     50.69%    100.00% (Unspecified)
board.cache_hierarchy.ruby_system.L1Cache_Controller.L1_Replacement::total     81181402                       (Unspecified)
board.cache_hierarchy.ruby_system.L1Cache_Controller.Own_GETX |        1290     18.55%     18.55% |        2347     33.75%     52.29% |        1999     28.74%     81.04% |        1319     18.96%    100.00% (Unspecified)
board.cache_hierarchy.ruby_system.L1Cache_Controller.Own_GETX::total         6955                       (Unspecified)
board.cache_hierarchy.ruby_system.L1Cache_Controller.Fwd_GETX |      109179     26.36%     26.36% |      161081     38.90%     65.26% |       74295     17.94%     83.20% |       69568     16.80%    100.00% (Unspecified)
board.cache_hierarchy.ruby_system.L1Cache_Controller.Fwd_GETX::total       414123                       (Unspecified)
board.cache_hierarchy.ruby_system.L1Cache_Controller.Fwd_GETS |      910012     37.41%     37.41% |      678832     27.90%     65.31% |      502160     20.64%     85.95% |      341683     14.05%    100.00% (Unspecified)
board.cache_hierarchy.ruby_system.L1Cache_Controller.Fwd_GETS::total      2432687                       (Unspecified)
board.cache_hierarchy.ruby_system.L1Cache_Controller.Fwd_DMA |        1634     19.30%     19.30% |        2099     24.79%     44.08% |        1413     16.69%     60.77% |        3322     39.23%    100.00% (Unspecified)
board.cache_hierarchy.ruby_system.L1Cache_Controller.Fwd_DMA::total         8468                       (Unspecified)
board.cache_hierarchy.ruby_system.L1Cache_Controller.Inv |       25166     13.33%     13.33% |       21366     11.31%     24.64% |       73636     38.99%     63.64% |       68669     36.36%    100.00% (Unspecified)
board.cache_hierarchy.ruby_system.L1Cache_Controller.Inv::total       188837                       (Unspecified)
board.cache_hierarchy.ruby_system.L1Cache_Controller.Ack |      253371     43.53%     43.53% |      133403     22.92%     66.45% |      113954     19.58%     86.03% |       81299     13.97%    100.00% (Unspecified)
board.cache_hierarchy.ruby_system.L1Cache_Controller.Ack::total       582027                       (Unspecified)
board.cache_hierarchy.ruby_system.L1Cache_Controller.Data |     8962150     13.69%     13.69% |    13565906     20.72%     34.41% |     7633874     11.66%     46.07% |    35307265     53.93%    100.00% (Unspecified)
board.cache_hierarchy.ruby_system.L1Cache_Controller.Data::total     65469195                       (Unspecified)
board.cache_hierarchy.ruby_system.L1Cache_Controller.Exclusive_Data |     5241745     26.48%     26.48% |     4857313     24.54%     51.02% |     2909646     14.70%     65.73% |     6783700     34.27%    100.00% (Unspecified)
board.cache_hierarchy.ruby_system.L1Cache_Controller.Exclusive_Data::total     19792404                       (Unspecified)
board.cache_hierarchy.ruby_system.L1Cache_Controller.Writeback_Ack |     4811880     11.36%     11.36% |     6510886     15.37%     26.73% |     4486696     10.59%     37.33% |    26544530     62.67%    100.00% (Unspecified)
board.cache_hierarchy.ruby_system.L1Cache_Controller.Writeback_Ack::total     42353992                       (Unspecified)
board.cache_hierarchy.ruby_system.L1Cache_Controller.Writeback_Ack_Data |     7773063     20.20%     20.20% |    10837894     28.16%     48.36% |     5344669     13.89%     62.24% |    14531139     37.76%    100.00% (Unspecified)
board.cache_hierarchy.ruby_system.L1Cache_Controller.Writeback_Ack_Data::total     38486765                       (Unspecified)
board.cache_hierarchy.ruby_system.L1Cache_Controller.Writeback_Nack |           1     14.29%     14.29% |           3     42.86%     57.14% |           3     42.86%    100.00% |           0      0.00%    100.00% (Unspecified)
board.cache_hierarchy.ruby_system.L1Cache_Controller.Writeback_Nack::total            7                       (Unspecified)
board.cache_hierarchy.ruby_system.L1Cache_Controller.All_acks |     4231797     29.13%     29.13% |     3764468     25.91%     55.04% |     2089183     14.38%     69.42% |     4442250     30.58%    100.00% (Unspecified)
board.cache_hierarchy.ruby_system.L1Cache_Controller.All_acks::total     14527698                       (Unspecified)
board.cache_hierarchy.ruby_system.L1Cache_Controller.Use_Timeout |     5243035     26.48%     26.48% |     4859660     24.54%     51.03% |     2911645     14.71%     65.73% |     6785019     34.27%    100.00% (Unspecified)
board.cache_hierarchy.ruby_system.L1Cache_Controller.Use_Timeout::total     19799359                       (Unspecified)
board.cache_hierarchy.ruby_system.L1Cache_Controller.I.Load |     4991646     16.40%     16.40% |     8208327     26.97%     43.36% |     3820921     12.55%     55.92% |    13418934     44.08%    100.00% (Unspecified)
board.cache_hierarchy.ruby_system.L1Cache_Controller.I.Load::total     30439828                       (Unspecified)
board.cache_hierarchy.ruby_system.L1Cache_Controller.I.Ifetch |     4981742     12.36%     12.36% |     6452771     16.01%     28.37% |     4635415     11.50%     39.87% |    24231101     60.13%    100.00% (Unspecified)
board.cache_hierarchy.ruby_system.L1Cache_Controller.I.Ifetch::total     40301029                       (Unspecified)
board.cache_hierarchy.ruby_system.L1Cache_Controller.I.Store |     2916269     26.20%     26.20% |     2975705     26.73%     52.93% |     1599815     14.37%     67.30% |     3639599     32.70%    100.00% (Unspecified)
board.cache_hierarchy.ruby_system.L1Cache_Controller.I.Store::total     11131388                       (Unspecified)
board.cache_hierarchy.ruby_system.L1Cache_Controller.I.L1_Replacement |      128575     37.85%     37.85% |       75965     22.36%     60.21% |       61285     18.04%     78.25% |       73899     21.75%    100.00% (Unspecified)
board.cache_hierarchy.ruby_system.L1Cache_Controller.I.L1_Replacement::total       339724                       (Unspecified)
board.cache_hierarchy.ruby_system.L1Cache_Controller.S.Load |    86419837     21.36%     21.36% |   108391226     26.79%     48.15% |    38798450      9.59%     57.74% |   170987711     42.26%    100.00% (Unspecified)
board.cache_hierarchy.ruby_system.L1Cache_Controller.S.Load::total    404597224                       (Unspecified)
board.cache_hierarchy.ruby_system.L1Cache_Controller.S.Ifetch |   209670808     25.78%     25.78% |   207881789     25.56%     51.35% |    98146193     12.07%     63.42% |   297500299     36.58%    100.00% (Unspecified)
board.cache_hierarchy.ruby_system.L1Cache_Controller.S.Ifetch::total    813199089                       (Unspecified)
board.cache_hierarchy.ruby_system.L1Cache_Controller.S.Store |     1314227     38.78%     38.78% |      786394     23.20%     61.98% |      487358     14.38%     76.36% |      801325     23.64%    100.00% (Unspecified)
board.cache_hierarchy.ruby_system.L1Cache_Controller.S.Store::total      3389304                       (Unspecified)
board.cache_hierarchy.ruby_system.L1Cache_Controller.S.L1_Replacement |     7621508     12.32%     12.32% |    12756811     20.61%     32.93% |     7072055     11.43%     44.36% |    34436280     55.64%    100.00% (Unspecified)
board.cache_hierarchy.ruby_system.L1Cache_Controller.S.L1_Replacement::total     61886654                       (Unspecified)
board.cache_hierarchy.ruby_system.L1Cache_Controller.S.Fwd_GETS |      674722     42.01%     42.01% |      370055     23.04%     65.05% |      350845     21.84%     86.90% |      210447     13.10%    100.00% (Unspecified)
board.cache_hierarchy.ruby_system.L1Cache_Controller.S.Fwd_GETS::total      1606069                       (Unspecified)
board.cache_hierarchy.ruby_system.L1Cache_Controller.S.Inv |       24973     13.30%     13.30% |       21173     11.27%     24.57% |       73285     39.02%     63.58% |       68404     36.42%    100.00% (Unspecified)
board.cache_hierarchy.ruby_system.L1Cache_Controller.S.Inv::total       187835                       (Unspecified)
board.cache_hierarchy.ruby_system.L1Cache_Controller.O.Load |      530072     43.30%     43.30% |      263159     21.49%     64.79% |      223671     18.27%     83.06% |      207387     16.94%    100.00% (Unspecified)
board.cache_hierarchy.ruby_system.L1Cache_Controller.O.Load::total      1224289                       (Unspecified)
board.cache_hierarchy.ruby_system.L1Cache_Controller.O.Ifetch |      274353     99.99%     99.99% |           8      0.00%     99.99% |           0      0.00%     99.99% |          26      0.01%    100.00% (Unspecified)
board.cache_hierarchy.ruby_system.L1Cache_Controller.O.Ifetch::total       274387                       (Unspecified)
board.cache_hierarchy.ruby_system.L1Cache_Controller.O.Store |        1301     18.57%     18.57% |        2369     33.81%     52.38% |        2010     28.69%     81.07% |        1326     18.93%    100.00% (Unspecified)
board.cache_hierarchy.ruby_system.L1Cache_Controller.O.Store::total         7006                       (Unspecified)
board.cache_hierarchy.ruby_system.L1Cache_Controller.O.L1_Replacement |        4504     23.34%     23.34% |        5647     29.26%     52.59% |        5128     26.57%     79.16% |        4022     20.84%    100.00% (Unspecified)
board.cache_hierarchy.ruby_system.L1Cache_Controller.O.L1_Replacement::total        19301                       (Unspecified)
board.cache_hierarchy.ruby_system.L1Cache_Controller.O.Fwd_GETX |       20662     13.98%     13.98% |       85272     57.68%     71.66% |       23085     15.62%     87.28% |       18810     12.72%    100.00% (Unspecified)
board.cache_hierarchy.ruby_system.L1Cache_Controller.O.Fwd_GETX::total       147829                       (Unspecified)
board.cache_hierarchy.ruby_system.L1Cache_Controller.O.Fwd_GETS |       16759     11.91%     11.91% |       82507     58.61%     70.52% |       23173     16.46%     86.98% |       18333     13.02%    100.00% (Unspecified)
board.cache_hierarchy.ruby_system.L1Cache_Controller.O.Fwd_GETS::total       140772                       (Unspecified)
board.cache_hierarchy.ruby_system.L1Cache_Controller.O.Fwd_DMA |           0      0.00%      0.00% |           0      0.00%      0.00% |           4    100.00%    100.00% |           0      0.00%    100.00% (Unspecified)
board.cache_hierarchy.ruby_system.L1Cache_Controller.O.Fwd_DMA::total            4                       (Unspecified)
board.cache_hierarchy.ruby_system.L1Cache_Controller.M.Load |     8347868      9.57%      9.57% |    21614545     24.78%     34.35% |    15068200     17.28%     51.63% |    42191680     48.37%    100.00% (Unspecified)
board.cache_hierarchy.ruby_system.L1Cache_Controller.M.Load::total     87222293                       (Unspecified)
board.cache_hierarchy.ruby_system.L1Cache_Controller.M.Ifetch |    18516057    100.00%    100.00% |         377      0.00%    100.00% |          43      0.00%    100.00% |          33      0.00%    100.00% (Unspecified)
board.cache_hierarchy.ruby_system.L1Cache_Controller.M.Ifetch::total     18516510                       (Unspecified)
board.cache_hierarchy.ruby_system.L1Cache_Controller.M.Store |      356907     22.44%     22.44% |      337524     21.22%     43.66% |      249061     15.66%     59.32% |      646975     40.68%    100.00% (Unspecified)
board.cache_hierarchy.ruby_system.L1Cache_Controller.M.Store::total      1590467                       (Unspecified)
board.cache_hierarchy.ruby_system.L1Cache_Controller.M.L1_Replacement |      353012     15.24%     15.24% |      426270     18.40%     33.63% |      355825     15.36%     48.99% |     1181929     51.01%    100.00% (Unspecified)
board.cache_hierarchy.ruby_system.L1Cache_Controller.M.L1_Replacement::total      2317036                       (Unspecified)
board.cache_hierarchy.ruby_system.L1Cache_Controller.M.Fwd_GETX |        6230     18.80%     18.80% |       14472     43.67%     62.47% |        5119     15.45%     77.92% |        7317     22.08%    100.00% (Unspecified)
board.cache_hierarchy.ruby_system.L1Cache_Controller.M.Fwd_GETX::total        33138                       (Unspecified)
board.cache_hierarchy.ruby_system.L1Cache_Controller.M.Fwd_GETS |       26469     15.20%     15.20% |       93322     53.58%     68.78% |       30228     17.35%     86.13% |       24158     13.87%    100.00% (Unspecified)
board.cache_hierarchy.ruby_system.L1Cache_Controller.M.Fwd_GETS::total       174177                       (Unspecified)
board.cache_hierarchy.ruby_system.L1Cache_Controller.M.Fwd_DMA |           0      0.00%      0.00% |           0      0.00%      0.00% |           6      3.35%      3.35% |         173     96.65%    100.00% (Unspecified)
board.cache_hierarchy.ruby_system.L1Cache_Controller.M.Fwd_DMA::total          179                       (Unspecified)
board.cache_hierarchy.ruby_system.L1Cache_Controller.M_W.Load |      551512     18.39%     18.39% |      665918     22.20%     40.59% |      510896     17.03%     57.62% |     1271369     42.38%    100.00% (Unspecified)
board.cache_hierarchy.ruby_system.L1Cache_Controller.M_W.Load::total      2999695                       (Unspecified)
board.cache_hierarchy.ruby_system.L1Cache_Controller.M_W.Ifetch |         355     91.49%     91.49% |          10      2.58%     94.07% |           9      2.32%     96.39% |          14      3.61%    100.00% (Unspecified)
board.cache_hierarchy.ruby_system.L1Cache_Controller.M_W.Ifetch::total          388                       (Unspecified)
board.cache_hierarchy.ruby_system.L1Cache_Controller.M_W.Store |      268585     23.22%     23.22% |      223578     19.33%     42.55% |      182210     15.75%     58.30% |      482333     41.70%    100.00% (Unspecified)
board.cache_hierarchy.ruby_system.L1Cache_Controller.M_W.Store::total      1156706                       (Unspecified)
board.cache_hierarchy.ruby_system.L1Cache_Controller.M_W.L1_Replacement |          98     90.74%     90.74% |           0      0.00%     90.74% |           0      0.00%     90.74% |          10      9.26%    100.00% (Unspecified)
board.cache_hierarchy.ruby_system.L1Cache_Controller.M_W.L1_Replacement::total          108                       (Unspecified)
board.cache_hierarchy.ruby_system.L1Cache_Controller.M_W.Fwd_GETX |         601      9.37%      9.37% |        4675     72.91%     82.28% |         790     12.32%     94.60% |         346      5.40%    100.00% (Unspecified)
board.cache_hierarchy.ruby_system.L1Cache_Controller.M_W.Fwd_GETX::total         6412                       (Unspecified)
board.cache_hierarchy.ruby_system.L1Cache_Controller.M_W.Fwd_GETS |        6715     46.58%     46.58% |        3136     21.75%     68.33% |        2726     18.91%     87.24% |        1840     12.76%    100.00% (Unspecified)
board.cache_hierarchy.ruby_system.L1Cache_Controller.M_W.Fwd_GETS::total        14417                       (Unspecified)
board.cache_hierarchy.ruby_system.L1Cache_Controller.M_W.Use_Timeout |      742653     18.05%     18.05% |      871614     21.18%     39.23% |      640252     15.56%     54.79% |     1860436     45.21%    100.00% (Unspecified)
board.cache_hierarchy.ruby_system.L1Cache_Controller.M_W.Use_Timeout::total      4114955                       (Unspecified)
board.cache_hierarchy.ruby_system.L1Cache_Controller.MM.Load |   422159273     48.88%     48.88% |   116897066     13.53%     62.41% |    68875829      7.97%     70.39% |   255741583     29.61%    100.00% (Unspecified)
board.cache_hierarchy.ruby_system.L1Cache_Controller.MM.Load::total    863673751                       (Unspecified)
board.cache_hierarchy.ruby_system.L1Cache_Controller.MM.Store |   146390048     24.30%     24.30% |   128385444     21.31%     45.60% |    86606494     14.37%     59.98% |   241163254     40.02%    100.00% (Unspecified)
board.cache_hierarchy.ruby_system.L1Cache_Controller.MM.Store::total    602545240                       (Unspecified)
board.cache_hierarchy.ruby_system.L1Cache_Controller.MM.L1_Replacement |     4605920     27.72%     27.72% |     4160055     25.03%     52.75% |     2398360     14.43%     67.18% |     5453439     32.82%    100.00% (Unspecified)
board.cache_hierarchy.ruby_system.L1Cache_Controller.MM.L1_Replacement::total     16617774                       (Unspecified)
board.cache_hierarchy.ruby_system.L1Cache_Controller.MM.Fwd_GETX |       77641     37.26%     37.26% |       52271     25.09%     62.35% |       38812     18.63%     80.98% |       39639     19.02%    100.00% (Unspecified)
board.cache_hierarchy.ruby_system.L1Cache_Controller.MM.Fwd_GETX::total       208363                       (Unspecified)
board.cache_hierarchy.ruby_system.L1Cache_Controller.MM.Fwd_GETS |      173272     38.78%     38.78% |      112961     25.28%     64.07% |       82777     18.53%     82.60% |       77746     17.40%    100.00% (Unspecified)
board.cache_hierarchy.ruby_system.L1Cache_Controller.MM.Fwd_GETS::total       446756                       (Unspecified)
board.cache_hierarchy.ruby_system.L1Cache_Controller.MM.Fwd_DMA |        1634     19.72%     19.72% |        2099     25.33%     45.06% |        1403     16.93%     61.99% |        3149     38.01%    100.00% (Unspecified)
board.cache_hierarchy.ruby_system.L1Cache_Controller.MM.Fwd_DMA::total         8285                       (Unspecified)
board.cache_hierarchy.ruby_system.L1Cache_Controller.MM_W.Load |      564430     20.80%     20.80% |      727654     26.81%     47.61% |      427890     15.77%     63.37% |      994187     36.63%    100.00% (Unspecified)
board.cache_hierarchy.ruby_system.L1Cache_Controller.MM_W.Load::total      2714161                       (Unspecified)
board.cache_hierarchy.ruby_system.L1Cache_Controller.MM_W.Store |    28238390     35.29%     35.29% |    16531191     20.66%     55.95% |    13096956     16.37%     72.32% |    22151072     27.68%    100.00% (Unspecified)
board.cache_hierarchy.ruby_system.L1Cache_Controller.MM_W.Store::total     80017609                       (Unspecified)
board.cache_hierarchy.ruby_system.L1Cache_Controller.MM_W.L1_Replacement |           8     47.06%     47.06% |           2     11.76%     58.82% |           2     11.76%     70.59% |           5     29.41%    100.00% (Unspecified)
board.cache_hierarchy.ruby_system.L1Cache_Controller.MM_W.L1_Replacement::total           17                       (Unspecified)
board.cache_hierarchy.ruby_system.L1Cache_Controller.MM_W.Fwd_GETX |        4031     22.00%     22.00% |        4368     23.83%     45.83% |        6478     35.35%     81.18% |        3449     18.82%    100.00% (Unspecified)
board.cache_hierarchy.ruby_system.L1Cache_Controller.MM_W.Fwd_GETX::total        18326                       (Unspecified)
board.cache_hierarchy.ruby_system.L1Cache_Controller.MM_W.Fwd_GETS |       12059     23.91%     23.91% |       16838     33.39%     57.30% |       12389     24.57%     81.87% |        9143     18.13%    100.00% (Unspecified)
board.cache_hierarchy.ruby_system.L1Cache_Controller.MM_W.Fwd_GETS::total        50429                       (Unspecified)
board.cache_hierarchy.ruby_system.L1Cache_Controller.MM_W.Use_Timeout |     4500382     28.69%     28.69% |     3988046     25.43%     54.12% |     2271393     14.48%     68.60% |     4924583     31.40%    100.00% (Unspecified)
board.cache_hierarchy.ruby_system.L1Cache_Controller.MM_W.Use_Timeout::total     15684404                       (Unspecified)
board.cache_hierarchy.ruby_system.L1Cache_Controller.IM.L1_Replacement |           9     90.00%     90.00% |           0      0.00%     90.00% |           1     10.00%    100.00% |           0      0.00%    100.00% (Unspecified)
board.cache_hierarchy.ruby_system.L1Cache_Controller.IM.L1_Replacement::total           10                       (Unspecified)
board.cache_hierarchy.ruby_system.L1Cache_Controller.IM.Ack |       91333     31.68%     31.68% |       88569     30.72%     62.41% |       70155     24.34%     86.74% |       38212     13.26%    100.00% (Unspecified)
board.cache_hierarchy.ruby_system.L1Cache_Controller.IM.Ack::total       288269                       (Unspecified)
board.cache_hierarchy.ruby_system.L1Cache_Controller.IM.Exclusive_Data |     2916472     26.20%     26.20% |     2975917     26.73%     52.93% |     1600174     14.37%     67.30% |     3639871     32.70%    100.00% (Unspecified)
board.cache_hierarchy.ruby_system.L1Cache_Controller.IM.Exclusive_Data::total     11132434                       (Unspecified)
board.cache_hierarchy.ruby_system.L1Cache_Controller.IS.L1_Replacement |          27     23.68%     23.68% |          11      9.65%     33.33% |          39     34.21%     67.54% |          37     32.46%    100.00% (Unspecified)
board.cache_hierarchy.ruby_system.L1Cache_Controller.IS.L1_Replacement::total          114                       (Unspecified)
board.cache_hierarchy.ruby_system.L1Cache_Controller.IS.Data |     8962150     13.69%     13.69% |    13565906     20.72%     34.41% |     7633874     11.66%     46.07% |    35307265     53.93%    100.00% (Unspecified)
board.cache_hierarchy.ruby_system.L1Cache_Controller.IS.Data::total     65469195                       (Unspecified)
board.cache_hierarchy.ruby_system.L1Cache_Controller.IS.Exclusive_Data |     1011238     19.18%     19.18% |     1095192     20.78%     39.96% |      822462     15.60%     55.56% |     2342769     44.44%    100.00% (Unspecified)
board.cache_hierarchy.ruby_system.L1Cache_Controller.IS.Exclusive_Data::total      5271661                       (Unspecified)
board.cache_hierarchy.ruby_system.L1Cache_Controller.SM.L1_Replacement |         129     19.58%     19.58% |          92     13.96%     33.54% |         101     15.33%     48.86% |         337     51.14%    100.00% (Unspecified)
board.cache_hierarchy.ruby_system.L1Cache_Controller.SM.L1_Replacement::total          659                       (Unspecified)
board.cache_hierarchy.ruby_system.L1Cache_Controller.SM.Fwd_GETS |           4     19.05%     19.05% |           3     14.29%     33.33% |           9     42.86%     76.19% |           5     23.81%    100.00% (Unspecified)
board.cache_hierarchy.ruby_system.L1Cache_Controller.SM.Fwd_GETS::total           21                       (Unspecified)
board.cache_hierarchy.ruby_system.L1Cache_Controller.SM.Inv |         192     19.30%     19.30% |         190     19.10%     38.39% |         348     34.97%     73.37% |         265     26.63%    100.00% (Unspecified)
board.cache_hierarchy.ruby_system.L1Cache_Controller.SM.Inv::total          995                       (Unspecified)
board.cache_hierarchy.ruby_system.L1Cache_Controller.SM.Ack |       50539     39.53%     39.53% |       28051     21.94%     61.47% |       20809     16.28%     77.74% |       28457     22.26%    100.00% (Unspecified)
board.cache_hierarchy.ruby_system.L1Cache_Controller.SM.Ack::total       127856                       (Unspecified)
board.cache_hierarchy.ruby_system.L1Cache_Controller.SM.Exclusive_Data |     1314035     38.78%     38.78% |      786204     23.20%     61.98% |      487010     14.37%     76.36% |      801060     23.64%    100.00% (Unspecified)
board.cache_hierarchy.ruby_system.L1Cache_Controller.SM.Exclusive_Data::total      3388309                       (Unspecified)
board.cache_hierarchy.ruby_system.L1Cache_Controller.OM.L1_Replacement |           1     20.00%     20.00% |           0      0.00%     20.00% |           0      0.00%     20.00% |           4     80.00%    100.00% (Unspecified)
board.cache_hierarchy.ruby_system.L1Cache_Controller.OM.L1_Replacement::total            5                       (Unspecified)
board.cache_hierarchy.ruby_system.L1Cache_Controller.OM.Own_GETX |        1290     18.55%     18.55% |        2347     33.75%     52.29% |        1999     28.74%     81.04% |        1319     18.96%    100.00% (Unspecified)
board.cache_hierarchy.ruby_system.L1Cache_Controller.OM.Own_GETX::total         6955                       (Unspecified)
board.cache_hierarchy.ruby_system.L1Cache_Controller.OM.Fwd_GETX |          11     21.57%     21.57% |          22     43.14%     64.71% |          11     21.57%     86.27% |           7     13.73%    100.00% (Unspecified)
board.cache_hierarchy.ruby_system.L1Cache_Controller.OM.Fwd_GETX::total           51                       (Unspecified)
board.cache_hierarchy.ruby_system.L1Cache_Controller.OM.Fwd_GETS |           1     10.00%     10.00% |           3     30.00%     40.00% |           1     10.00%     50.00% |           5     50.00%    100.00% (Unspecified)
board.cache_hierarchy.ruby_system.L1Cache_Controller.OM.Fwd_GETS::total           10                       (Unspecified)
board.cache_hierarchy.ruby_system.L1Cache_Controller.OM.Ack |      111499     67.21%     67.21% |       16783     10.12%     77.32% |       22990     13.86%     91.18% |       14630      8.82%    100.00% (Unspecified)
board.cache_hierarchy.ruby_system.L1Cache_Controller.OM.Ack::total       165902                       (Unspecified)
board.cache_hierarchy.ruby_system.L1Cache_Controller.OM.All_acks |     4231797     29.13%     29.13% |     3764468     25.91%     55.04% |     2089183     14.38%     69.42% |     4442250     30.58%    100.00% (Unspecified)
board.cache_hierarchy.ruby_system.L1Cache_Controller.OM.All_acks::total     14527698                       (Unspecified)
board.cache_hierarchy.ruby_system.L1Cache_Controller.SI.Load |        5401     23.56%     23.56% |        5317     23.20%     46.76% |        4704     20.52%     67.29% |        7498     32.71%    100.00% (Unspecified)
board.cache_hierarchy.ruby_system.L1Cache_Controller.SI.Load::total        22920                       (Unspecified)
board.cache_hierarchy.ruby_system.L1Cache_Controller.SI.Ifetch |        4350     23.88%     23.88% |        4380     24.04%     47.92% |        3834     21.05%     68.97% |        5652     31.03%    100.00% (Unspecified)
board.cache_hierarchy.ruby_system.L1Cache_Controller.SI.Ifetch::total        18216                       (Unspecified)
board.cache_hierarchy.ruby_system.L1Cache_Controller.SI.Store |          22     70.97%     70.97% |           2      6.45%     77.42% |           4     12.90%     90.32% |           3      9.68%    100.00% (Unspecified)
board.cache_hierarchy.ruby_system.L1Cache_Controller.SI.Store::total           31                       (Unspecified)
board.cache_hierarchy.ruby_system.L1Cache_Controller.SI.Fwd_GETS |           9     28.12%     28.12% |           7     21.88%     50.00% |          12     37.50%     87.50% |           4     12.50%    100.00% (Unspecified)
board.cache_hierarchy.ruby_system.L1Cache_Controller.SI.Fwd_GETS::total           32                       (Unspecified)
board.cache_hierarchy.ruby_system.L1Cache_Controller.SI.Inv |           1     14.29%     14.29% |           3     42.86%     57.14% |           3     42.86%    100.00% |           0      0.00%    100.00% (Unspecified)
board.cache_hierarchy.ruby_system.L1Cache_Controller.SI.Inv::total            7                       (Unspecified)
board.cache_hierarchy.ruby_system.L1Cache_Controller.SI.Writeback_Ack |     4811880     11.36%     11.36% |     6510886     15.37%     26.73% |     4486696     10.59%     37.33% |    26544530     62.67%    100.00% (Unspecified)
board.cache_hierarchy.ruby_system.L1Cache_Controller.SI.Writeback_Ack::total     42353992                       (Unspecified)
board.cache_hierarchy.ruby_system.L1Cache_Controller.SI.Writeback_Ack_Data |     2809627     14.38%     14.38% |     6245922     31.98%     46.36% |     2585356     13.24%     59.60% |     7891749     40.40%    100.00% (Unspecified)
board.cache_hierarchy.ruby_system.L1Cache_Controller.SI.Writeback_Ack_Data::total     19532654                       (Unspecified)
board.cache_hierarchy.ruby_system.L1Cache_Controller.OI.Writeback_Ack_Data |        4506     23.34%     23.34% |        5647     29.25%     52.59% |        5128     26.56%     79.16% |        4024     20.84%    100.00% (Unspecified)
board.cache_hierarchy.ruby_system.L1Cache_Controller.OI.Writeback_Ack_Data::total        19305                       (Unspecified)
board.cache_hierarchy.ruby_system.L1Cache_Controller.MI.Load |         418     22.39%     22.39% |         258     13.82%     36.21% |         309     16.55%     52.76% |         882     47.24%    100.00% (Unspecified)
board.cache_hierarchy.ruby_system.L1Cache_Controller.MI.Load::total         1867                       (Unspecified)
board.cache_hierarchy.ruby_system.L1Cache_Controller.MI.Ifetch |         117    100.00%    100.00% |           0      0.00%    100.00% |           0      0.00%    100.00% |           0      0.00%    100.00% (Unspecified)
board.cache_hierarchy.ruby_system.L1Cache_Controller.MI.Ifetch::total          117                       (Unspecified)
board.cache_hierarchy.ruby_system.L1Cache_Controller.MI.Store |          67     14.23%     14.23% |          89     18.90%     33.12% |          87     18.47%     51.59% |         228     48.41%    100.00% (Unspecified)
board.cache_hierarchy.ruby_system.L1Cache_Controller.MI.Store::total          471                       (Unspecified)
board.cache_hierarchy.ruby_system.L1Cache_Controller.MI.Fwd_GETX |           3     75.00%     75.00% |           1     25.00%    100.00% |           0      0.00%    100.00% |           0      0.00%    100.00% (Unspecified)
board.cache_hierarchy.ruby_system.L1Cache_Controller.MI.Fwd_GETX::total            4                       (Unspecified)
board.cache_hierarchy.ruby_system.L1Cache_Controller.MI.Fwd_GETS |           2     50.00%     50.00% |           0      0.00%     50.00% |           0      0.00%     50.00% |           2     50.00%    100.00% (Unspecified)
board.cache_hierarchy.ruby_system.L1Cache_Controller.MI.Fwd_GETS::total            4                       (Unspecified)
board.cache_hierarchy.ruby_system.L1Cache_Controller.MI.Writeback_Ack_Data |     4958927     26.19%     26.19% |     4586324     24.22%     50.41% |     2754185     14.55%     64.96% |     6635366     35.04%    100.00% (Unspecified)
board.cache_hierarchy.ruby_system.L1Cache_Controller.MI.Writeback_Ack_Data::total     18934802                       (Unspecified)
board.cache_hierarchy.ruby_system.L1Cache_Controller.II.Writeback_Ack_Data |           3     75.00%     75.00% |           1     25.00%    100.00% |           0      0.00%    100.00% |           0      0.00%    100.00% (Unspecified)
board.cache_hierarchy.ruby_system.L1Cache_Controller.II.Writeback_Ack_Data::total            4                       (Unspecified)
board.cache_hierarchy.ruby_system.L1Cache_Controller.II.Writeback_Nack |           1     14.29%     14.29% |           3     42.86%     57.14% |           3     42.86%    100.00% |           0      0.00%    100.00% (Unspecified)
board.cache_hierarchy.ruby_system.L1Cache_Controller.II.Writeback_Nack::total            7                       (Unspecified)
board.cache_hierarchy.ruby_system.L2Cache_Controller.L1_GETS     70786679      0.00%      0.00% (Unspecified)
board.cache_hierarchy.ruby_system.L2Cache_Controller.L1_GETX     14531367      0.00%      0.00% (Unspecified)
board.cache_hierarchy.ruby_system.L2Cache_Controller.L1_PUTO        19302      0.00%      0.00% (Unspecified)
board.cache_hierarchy.ruby_system.L2Cache_Controller.L1_PUTX     18934818      0.00%      0.00% (Unspecified)
board.cache_hierarchy.ruby_system.L2Cache_Controller.L1_PUTS_only     52469203      0.00%      0.00% (Unspecified)
board.cache_hierarchy.ruby_system.L2Cache_Controller.L1_PUTS      9419233      0.00%      0.00% (Unspecified)
board.cache_hierarchy.ruby_system.L2Cache_Controller.Fwd_GETX         9754      0.00%      0.00% (Unspecified)
board.cache_hierarchy.ruby_system.L2Cache_Controller.Fwd_DMA         9894      0.00%      0.00% (Unspecified)
board.cache_hierarchy.ruby_system.L2Cache_Controller.Inv       133672      0.00%      0.00% (Unspecified)
board.cache_hierarchy.ruby_system.L2Cache_Controller.IntAck         1787      0.00%      0.00% (Unspecified)
board.cache_hierarchy.ruby_system.L2Cache_Controller.All_Acks     11672962      0.00%      0.00% (Unspecified)
board.cache_hierarchy.ruby_system.L2Cache_Controller.Data     32241839      0.00%      0.00% (Unspecified)
board.cache_hierarchy.ruby_system.L2Cache_Controller.Data_Exclusive         1363      0.00%      0.00% (Unspecified)
board.cache_hierarchy.ruby_system.L2Cache_Controller.L1_WBCLEANDATA     19532654      0.00%      0.00% (Unspecified)
board.cache_hierarchy.ruby_system.L2Cache_Controller.L1_WBDIRTYDATA     18954107      0.00%      0.00% (Unspecified)
board.cache_hierarchy.ruby_system.L2Cache_Controller.Writeback_Ack     11656428      0.00%      0.00% (Unspecified)
board.cache_hierarchy.ruby_system.L2Cache_Controller.Unblock    107823191      0.00%      0.00% (Unspecified)
board.cache_hierarchy.ruby_system.L2Cache_Controller.Exclusive_Unblock     19799359      0.00%      0.00% (Unspecified)
board.cache_hierarchy.ruby_system.L2Cache_Controller.DmaAck         8468      0.00%      0.00% (Unspecified)
board.cache_hierarchy.ruby_system.L2Cache_Controller.L2_Replacement     30960965      0.00%      0.00% (Unspecified)
board.cache_hierarchy.ruby_system.L2Cache_Controller.I.L1_GETS     20570596      0.00%      0.00% (Unspecified)
board.cache_hierarchy.ruby_system.L2Cache_Controller.I.L1_GETX      8299565      0.00%      0.00% (Unspecified)
board.cache_hierarchy.ruby_system.L2Cache_Controller.I.Inv       130878      0.00%      0.00% (Unspecified)
board.cache_hierarchy.ruby_system.L2Cache_Controller.ILS.L1_GETS      1606122      0.00%      0.00% (Unspecified)
board.cache_hierarchy.ruby_system.L2Cache_Controller.ILS.L1_GETX      3150033      0.00%      0.00% (Unspecified)
board.cache_hierarchy.ruby_system.L2Cache_Controller.ILS.L1_PUTS_only     17822372      0.00%      0.00% (Unspecified)
board.cache_hierarchy.ruby_system.L2Cache_Controller.ILS.L1_PUTS      1710283      0.00%      0.00% (Unspecified)
board.cache_hierarchy.ruby_system.L2Cache_Controller.ILS.Inv         1382      0.00%      0.00% (Unspecified)
board.cache_hierarchy.ruby_system.L2Cache_Controller.ILX.L1_GETS       620937      0.00%      0.00% (Unspecified)
board.cache_hierarchy.ruby_system.L2Cache_Controller.ILX.L1_GETX       240411      0.00%      0.00% (Unspecified)
board.cache_hierarchy.ruby_system.L2Cache_Controller.ILX.L1_PUTX     18934806      0.00%      0.00% (Unspecified)
board.cache_hierarchy.ruby_system.L2Cache_Controller.ILX.L1_PUTS            7      0.00%      0.00% (Unspecified)
board.cache_hierarchy.ruby_system.L2Cache_Controller.ILX.Fwd_GETX         1094      0.00%      0.00% (Unspecified)
board.cache_hierarchy.ruby_system.L2Cache_Controller.ILX.Fwd_DMA         8464      0.00%      0.00% (Unspecified)
board.cache_hierarchy.ruby_system.L2Cache_Controller.ILOX.L1_GETS        19341      0.00%      0.00% (Unspecified)
board.cache_hierarchy.ruby_system.L2Cache_Controller.ILOX.L1_GETX         1320      0.00%      0.00% (Unspecified)
board.cache_hierarchy.ruby_system.L2Cache_Controller.ILOX.L1_PUTO         5953      0.00%      0.00% (Unspecified)
board.cache_hierarchy.ruby_system.L2Cache_Controller.ILOX.Fwd_GETX          153      0.00%      0.00% (Unspecified)
board.cache_hierarchy.ruby_system.L2Cache_Controller.ILOX.Fwd_DMA            2      0.00%      0.00% (Unspecified)
board.cache_hierarchy.ruby_system.L2Cache_Controller.ILOSX.L1_GETS       121441      0.00%      0.00% (Unspecified)
board.cache_hierarchy.ruby_system.L2Cache_Controller.ILOSX.L1_GETX       153246      0.00%      0.00% (Unspecified)
board.cache_hierarchy.ruby_system.L2Cache_Controller.ILOSX.L1_PUTO        13348      0.00%      0.00% (Unspecified)
board.cache_hierarchy.ruby_system.L2Cache_Controller.ILOSX.L1_PUTX            4      0.00%      0.00% (Unspecified)
board.cache_hierarchy.ruby_system.L2Cache_Controller.ILOSX.L1_PUTS_only        26805      0.00%      0.00% (Unspecified)
board.cache_hierarchy.ruby_system.L2Cache_Controller.ILOSX.L1_PUTS        12309      0.00%      0.00% (Unspecified)
board.cache_hierarchy.ruby_system.L2Cache_Controller.ILOSX.Fwd_GETX          116      0.00%      0.00% (Unspecified)
board.cache_hierarchy.ruby_system.L2Cache_Controller.ILOSX.Fwd_DMA            2      0.00%      0.00% (Unspecified)
board.cache_hierarchy.ruby_system.L2Cache_Controller.S.L1_GETS     35157960      0.00%      0.00% (Unspecified)
board.cache_hierarchy.ruby_system.L2Cache_Controller.S.L1_GETX        81311      0.00%      0.00% (Unspecified)
board.cache_hierarchy.ruby_system.L2Cache_Controller.S.Inv         1217      0.00%      0.00% (Unspecified)
board.cache_hierarchy.ruby_system.L2Cache_Controller.S.L2_Replacement     17191986      0.00%      0.00% (Unspecified)
board.cache_hierarchy.ruby_system.L2Cache_Controller.OLSX.L1_GETS        26493      0.00%      0.00% (Unspecified)
board.cache_hierarchy.ruby_system.L2Cache_Controller.OLSX.L1_GETX         3508      0.00%      0.00% (Unspecified)
board.cache_hierarchy.ruby_system.L2Cache_Controller.OLSX.L1_PUTS_only         6154      0.00%      0.00% (Unspecified)
board.cache_hierarchy.ruby_system.L2Cache_Controller.OLSX.L1_PUTS        22986      0.00%      0.00% (Unspecified)
board.cache_hierarchy.ruby_system.L2Cache_Controller.OLSX.Fwd_GETX           25      0.00%      0.00% (Unspecified)
board.cache_hierarchy.ruby_system.L2Cache_Controller.OLSX.L2_Replacement         3663      0.00%      0.00% (Unspecified)
board.cache_hierarchy.ruby_system.L2Cache_Controller.SLS.L1_GETS      7793062      0.00%      0.00% (Unspecified)
board.cache_hierarchy.ruby_system.L2Cache_Controller.SLS.L1_GETX       140335      0.00%      0.00% (Unspecified)
board.cache_hierarchy.ruby_system.L2Cache_Controller.SLS.L1_PUTS_only     34613712      0.00%      0.00% (Unspecified)
board.cache_hierarchy.ruby_system.L2Cache_Controller.SLS.L1_PUTS      7672026      0.00%      0.00% (Unspecified)
board.cache_hierarchy.ruby_system.L2Cache_Controller.SLS.Inv          195      0.00%      0.00% (Unspecified)
board.cache_hierarchy.ruby_system.L2Cache_Controller.SLS.L2_Replacement      2112465      0.00%      0.00% (Unspecified)
board.cache_hierarchy.ruby_system.L2Cache_Controller.M.L1_GETS      4824905      0.00%      0.00% (Unspecified)
board.cache_hierarchy.ruby_system.L2Cache_Controller.M.L1_GETX      2457969      0.00%      0.00% (Unspecified)
board.cache_hierarchy.ruby_system.L2Cache_Controller.M.Fwd_GETX         8366      0.00%      0.00% (Unspecified)
board.cache_hierarchy.ruby_system.L2Cache_Controller.M.Fwd_DMA         1426      0.00%      0.00% (Unspecified)
board.cache_hierarchy.ruby_system.L2Cache_Controller.M.L2_Replacement     11652765      0.00%      0.00% (Unspecified)
board.cache_hierarchy.ruby_system.L2Cache_Controller.IFGX.Data_Exclusive         1247      0.00%      0.00% (Unspecified)
board.cache_hierarchy.ruby_system.L2Cache_Controller.IFGXX.IntAck           99      0.00%      0.00% (Unspecified)
board.cache_hierarchy.ruby_system.L2Cache_Controller.IFGXX.Data_Exclusive          116      0.00%      0.00% (Unspecified)
board.cache_hierarchy.ruby_system.L2Cache_Controller.IFGXXD.IntAck           17      0.00%      0.00% (Unspecified)
board.cache_hierarchy.ruby_system.L2Cache_Controller.IFGXXD.All_Acks          116      0.00%      0.00% (Unspecified)
board.cache_hierarchy.ruby_system.L2Cache_Controller.OLSF.IntAck           25      0.00%      0.00% (Unspecified)
board.cache_hierarchy.ruby_system.L2Cache_Controller.OLSF.All_Acks           25      0.00%      0.00% (Unspecified)
board.cache_hierarchy.ruby_system.L2Cache_Controller.ILOXW.L1_PUTO            1      0.00%      0.00% (Unspecified)
board.cache_hierarchy.ruby_system.L2Cache_Controller.ILOXW.L1_WBDIRTYDATA         5953      0.00%      0.00% (Unspecified)
board.cache_hierarchy.ruby_system.L2Cache_Controller.ILOXW.Unblock        26805      0.00%      0.00% (Unspecified)
board.cache_hierarchy.ruby_system.L2Cache_Controller.ILOSXW.L1_GETX            1      0.00%      0.00% (Unspecified)
board.cache_hierarchy.ruby_system.L2Cache_Controller.ILOSXW.L1_PUTS_only            1      0.00%      0.00% (Unspecified)
board.cache_hierarchy.ruby_system.L2Cache_Controller.ILOSXW.L1_WBDIRTYDATA        13352      0.00%      0.00% (Unspecified)
board.cache_hierarchy.ruby_system.L2Cache_Controller.ILOSXW.Unblock        12309      0.00%      0.00% (Unspecified)
board.cache_hierarchy.ruby_system.L2Cache_Controller.ILSW.L1_GETS           14      0.00%      0.00% (Unspecified)
board.cache_hierarchy.ruby_system.L2Cache_Controller.ILSW.L1_GETX            2      0.00%      0.00% (Unspecified)
board.cache_hierarchy.ruby_system.L2Cache_Controller.ILSW.L1_PUTS          359      0.00%      0.00% (Unspecified)
board.cache_hierarchy.ruby_system.L2Cache_Controller.ILSW.L1_WBCLEANDATA      1710283      0.00%      0.00% (Unspecified)
board.cache_hierarchy.ruby_system.L2Cache_Controller.IW.L1_GETS           21      0.00%      0.00% (Unspecified)
board.cache_hierarchy.ruby_system.L2Cache_Controller.IW.L1_WBCLEANDATA     17822371      0.00%      0.00% (Unspecified)
board.cache_hierarchy.ruby_system.L2Cache_Controller.ILXW.L1_GETS            4      0.00%      0.00% (Unspecified)
board.cache_hierarchy.ruby_system.L2Cache_Controller.ILXW.L1_GETX            3      0.00%      0.00% (Unspecified)
board.cache_hierarchy.ruby_system.L2Cache_Controller.ILXW.L1_WBDIRTYDATA     18934802      0.00%      0.00% (Unspecified)
board.cache_hierarchy.ruby_system.L2Cache_Controller.ILXW.Unblock            4      0.00%      0.00% (Unspecified)
board.cache_hierarchy.ruby_system.L2Cache_Controller.SLSW.L1_GETS          159      0.00%      0.00% (Unspecified)
board.cache_hierarchy.ruby_system.L2Cache_Controller.SLSW.L1_GETX            1      0.00%      0.00% (Unspecified)
board.cache_hierarchy.ruby_system.L2Cache_Controller.SLSW.L1_PUTS         1058      0.00%      0.00% (Unspecified)
board.cache_hierarchy.ruby_system.L2Cache_Controller.SLSW.Unblock      7672026      0.00%      0.00% (Unspecified)
board.cache_hierarchy.ruby_system.L2Cache_Controller.SLSW.L2_Replacement           27      0.00%      0.00% (Unspecified)
board.cache_hierarchy.ruby_system.L2Cache_Controller.SW.L1_GETS          138      0.00%      0.00% (Unspecified)
board.cache_hierarchy.ruby_system.L2Cache_Controller.SW.Unblock     34613712      0.00%      0.00% (Unspecified)
board.cache_hierarchy.ruby_system.L2Cache_Controller.SW.L2_Replacement           59      0.00%      0.00% (Unspecified)
board.cache_hierarchy.ruby_system.L2Cache_Controller.OXW.Unblock         6154      0.00%      0.00% (Unspecified)
board.cache_hierarchy.ruby_system.L2Cache_Controller.OLSXW.L1_PUTS            1      0.00%      0.00% (Unspecified)
board.cache_hierarchy.ruby_system.L2Cache_Controller.OLSXW.Unblock        22986      0.00%      0.00% (Unspecified)
board.cache_hierarchy.ruby_system.L2Cache_Controller.IFLS.L1_GETS         2311      0.00%      0.00% (Unspecified)
board.cache_hierarchy.ruby_system.L2Cache_Controller.IFLS.L1_GETX           25      0.00%      0.00% (Unspecified)
board.cache_hierarchy.ruby_system.L2Cache_Controller.IFLS.L1_PUTS_only           34      0.00%      0.00% (Unspecified)
board.cache_hierarchy.ruby_system.L2Cache_Controller.IFLS.L1_PUTS           19      0.00%      0.00% (Unspecified)
board.cache_hierarchy.ruby_system.L2Cache_Controller.IFLS.Unblock      1606122      0.00%      0.00% (Unspecified)
board.cache_hierarchy.ruby_system.L2Cache_Controller.IFLOX.L1_GETS            1      0.00%      0.00% (Unspecified)
board.cache_hierarchy.ruby_system.L2Cache_Controller.IFLOX.Unblock        19341      0.00%      0.00% (Unspecified)
board.cache_hierarchy.ruby_system.L2Cache_Controller.IFLOX.Exclusive_Unblock         3508      0.00%      0.00% (Unspecified)
board.cache_hierarchy.ruby_system.L2Cache_Controller.IFLOXX.L1_GETS         9128      0.00%      0.00% (Unspecified)
board.cache_hierarchy.ruby_system.L2Cache_Controller.IFLOXX.L1_GETX         1638      0.00%      0.00% (Unspecified)
board.cache_hierarchy.ruby_system.L2Cache_Controller.IFLOXX.L1_PUTX            8      0.00%      0.00% (Unspecified)
board.cache_hierarchy.ruby_system.L2Cache_Controller.IFLOXX.Unblock       174181      0.00%      0.00% (Unspecified)
board.cache_hierarchy.ruby_system.L2Cache_Controller.IFLOXX.Exclusive_Unblock       688487      0.00%      0.00% (Unspecified)
board.cache_hierarchy.ruby_system.L2Cache_Controller.IFLOSX.L1_GETS            5      0.00%      0.00% (Unspecified)
board.cache_hierarchy.ruby_system.L2Cache_Controller.IFLOSX.L1_GETX           44      0.00%      0.00% (Unspecified)
board.cache_hierarchy.ruby_system.L2Cache_Controller.IFLOSX.Unblock       121441      0.00%      0.00% (Unspecified)
board.cache_hierarchy.ruby_system.L2Cache_Controller.IFLXO.L1_GETS         1419      0.00%      0.00% (Unspecified)
board.cache_hierarchy.ruby_system.L2Cache_Controller.IFLXO.L1_GETX          216      0.00%      0.00% (Unspecified)
board.cache_hierarchy.ruby_system.L2Cache_Controller.IFLXO.Exclusive_Unblock       153246      0.00%      0.00% (Unspecified)
board.cache_hierarchy.ruby_system.L2Cache_Controller.IGS.L1_GETS        29822      0.00%      0.00% (Unspecified)
board.cache_hierarchy.ruby_system.L2Cache_Controller.IGS.L1_GETX           11      0.00%      0.00% (Unspecified)
board.cache_hierarchy.ruby_system.L2Cache_Controller.IGS.Data     20570595      0.00%      0.00% (Unspecified)
board.cache_hierarchy.ruby_system.L2Cache_Controller.IGS.Unblock     20570595      0.00%      0.00% (Unspecified)
board.cache_hierarchy.ruby_system.L2Cache_Controller.IGM.L1_GETS           12      0.00%      0.00% (Unspecified)
board.cache_hierarchy.ruby_system.L2Cache_Controller.IGM.L1_GETX          752      0.00%      0.00% (Unspecified)
board.cache_hierarchy.ruby_system.L2Cache_Controller.IGM.Data      8380876      0.00%      0.00% (Unspecified)
board.cache_hierarchy.ruby_system.L2Cache_Controller.IGMLS.L1_GETS          116      0.00%      0.00% (Unspecified)
board.cache_hierarchy.ruby_system.L2Cache_Controller.IGMLS.L1_GETX          927      0.00%      0.00% (Unspecified)
board.cache_hierarchy.ruby_system.L2Cache_Controller.IGMLS.L1_PUTS_only            2      0.00%      0.00% (Unspecified)
board.cache_hierarchy.ruby_system.L2Cache_Controller.IGMLS.L1_PUTS            5      0.00%      0.00% (Unspecified)
board.cache_hierarchy.ruby_system.L2Cache_Controller.IGMLS.Data      3290368      0.00%      0.00% (Unspecified)
board.cache_hierarchy.ruby_system.L2Cache_Controller.IGMO.All_Acks     11671244      0.00%      0.00% (Unspecified)
board.cache_hierarchy.ruby_system.L2Cache_Controller.IGMOU.L1_GETS           11      0.00%      0.00% (Unspecified)
board.cache_hierarchy.ruby_system.L2Cache_Controller.IGMOU.L1_GETX           15      0.00%      0.00% (Unspecified)
board.cache_hierarchy.ruby_system.L2Cache_Controller.IGMOU.Exclusive_Unblock     11671244      0.00%      0.00% (Unspecified)
board.cache_hierarchy.ruby_system.L2Cache_Controller.II.IntAck         1646      0.00%      0.00% (Unspecified)
board.cache_hierarchy.ruby_system.L2Cache_Controller.II.All_Acks         1577      0.00%      0.00% (Unspecified)
board.cache_hierarchy.ruby_system.L2Cache_Controller.MM.L1_GETX           12      0.00%      0.00% (Unspecified)
board.cache_hierarchy.ruby_system.L2Cache_Controller.MM.Exclusive_Unblock      2457969      0.00%      0.00% (Unspecified)
board.cache_hierarchy.ruby_system.L2Cache_Controller.SS.L1_GETS         1511      0.00%      0.00% (Unspecified)
board.cache_hierarchy.ruby_system.L2Cache_Controller.SS.Unblock     35157960      0.00%      0.00% (Unspecified)
board.cache_hierarchy.ruby_system.L2Cache_Controller.OO.L1_GETS           18      0.00%      0.00% (Unspecified)
board.cache_hierarchy.ruby_system.L2Cache_Controller.OO.Exclusive_Unblock      4824905      0.00%      0.00% (Unspecified)
board.cache_hierarchy.ruby_system.L2Cache_Controller.OLSXS.L1_GETS            4      0.00%      0.00% (Unspecified)
board.cache_hierarchy.ruby_system.L2Cache_Controller.OLSXS.L1_GETX            1      0.00%      0.00% (Unspecified)
board.cache_hierarchy.ruby_system.L2Cache_Controller.OLSXS.L1_PUTS_only            1      0.00%      0.00% (Unspecified)
board.cache_hierarchy.ruby_system.L2Cache_Controller.OLSXS.Unblock        26493      0.00%      0.00% (Unspecified)
board.cache_hierarchy.ruby_system.L2Cache_Controller.SLSS.L1_GETS         1078      0.00%      0.00% (Unspecified)
board.cache_hierarchy.ruby_system.L2Cache_Controller.SLSS.L1_PUTS_only          122      0.00%      0.00% (Unspecified)
board.cache_hierarchy.ruby_system.L2Cache_Controller.SLSS.L1_PUTS          180      0.00%      0.00% (Unspecified)
board.cache_hierarchy.ruby_system.L2Cache_Controller.SLSS.Unblock      7793062      0.00%      0.00% (Unspecified)
board.cache_hierarchy.ruby_system.L2Cache_Controller.MI.L1_GETS           49      0.00%      0.00% (Unspecified)
board.cache_hierarchy.ruby_system.L2Cache_Controller.MI.L1_GETX           21      0.00%      0.00% (Unspecified)
board.cache_hierarchy.ruby_system.L2Cache_Controller.MI.Writeback_Ack     11652765      0.00%      0.00% (Unspecified)
board.cache_hierarchy.ruby_system.L2Cache_Controller.OLSI.L1_GETS            1      0.00%      0.00% (Unspecified)
board.cache_hierarchy.ruby_system.L2Cache_Controller.OLSI.Writeback_Ack         3663      0.00%      0.00% (Unspecified)
board.cache_hierarchy.ruby_system.L2Cache_Controller.ILOSXD.DmaAck            2      0.00%      0.00% (Unspecified)
board.cache_hierarchy.ruby_system.L2Cache_Controller.ILXD.DmaAck         8464      0.00%      0.00% (Unspecified)
board.cache_hierarchy.ruby_system.L2Cache_Controller.ILOXD.DmaAck            2      0.00%      0.00% (Unspecified)
board.cache_hierarchy.ruby_system.RequestType.LD.latency_hist_seqr::bucket_size          256                       (Unspecified)
board.cache_hierarchy.ruby_system.RequestType.LD.latency_hist_seqr::max_bucket         2559                       (Unspecified)
board.cache_hierarchy.ruby_system.RequestType.LD.latency_hist_seqr::samples   1392871241                       (Unspecified)
board.cache_hierarchy.ruby_system.RequestType.LD.latency_hist_seqr::mean     3.324539                       (Unspecified)
board.cache_hierarchy.ruby_system.RequestType.LD.latency_hist_seqr::gmean     1.087372                       (Unspecified)
board.cache_hierarchy.ruby_system.RequestType.LD.latency_hist_seqr::stdev    24.444527                       (Unspecified)
board.cache_hierarchy.ruby_system.RequestType.LD.latency_hist_seqr |  1391124210     99.87%     99.87% |     1374068      0.10%     99.97% |      216530      0.02%     99.99% |      126272      0.01%    100.00% |       21828      0.00%    100.00% |        7606      0.00%    100.00% |         664      0.00%    100.00% |          54      0.00%    100.00% |           9      0.00%    100.00% |           0      0.00%    100.00% (Unspecified)
board.cache_hierarchy.ruby_system.RequestType.LD.latency_hist_seqr::total   1392871241                       (Unspecified)
board.cache_hierarchy.ruby_system.RequestType.LD.hit_latency_hist_seqr::bucket_size            1                       (Unspecified)
board.cache_hierarchy.ruby_system.RequestType.LD.hit_latency_hist_seqr::max_bucket            9                       (Unspecified)
board.cache_hierarchy.ruby_system.RequestType.LD.hit_latency_hist_seqr::samples   1362431413                       (Unspecified)
board.cache_hierarchy.ruby_system.RequestType.LD.hit_latency_hist_seqr::mean     1.000752                       (Unspecified)
board.cache_hierarchy.ruby_system.RequestType.LD.hit_latency_hist_seqr::gmean     1.000522                       (Unspecified)
board.cache_hierarchy.ruby_system.RequestType.LD.hit_latency_hist_seqr::stdev     0.027426                       (Unspecified)
board.cache_hierarchy.ruby_system.RequestType.LD.hit_latency_hist_seqr |           0      0.00%      0.00% |  1361406803     99.92%     99.92% |     1024289      0.08%    100.00% |         320      0.00%    100.00% |           1      0.00%    100.00% |           0      0.00%    100.00% |           0      0.00%    100.00% |           0      0.00%    100.00% |           0      0.00%    100.00% |           0      0.00%    100.00% (Unspecified)
board.cache_hierarchy.ruby_system.RequestType.LD.hit_latency_hist_seqr::total   1362431413                       (Unspecified)
board.cache_hierarchy.ruby_system.RequestType.LD.miss_latency_hist_seqr::bucket_size          256                       (Unspecified)
board.cache_hierarchy.ruby_system.RequestType.LD.miss_latency_hist_seqr::max_bucket         2559                       (Unspecified)
board.cache_hierarchy.ruby_system.RequestType.LD.miss_latency_hist_seqr::samples     30439828                       (Unspecified)
board.cache_hierarchy.ruby_system.RequestType.LD.miss_latency_hist_seqr::mean   107.333022                       (Unspecified)
board.cache_hierarchy.ruby_system.RequestType.LD.miss_latency_hist_seqr::gmean    45.129405                       (Unspecified)
board.cache_hierarchy.ruby_system.RequestType.LD.miss_latency_hist_seqr::stdev   127.603376                       (Unspecified)
board.cache_hierarchy.ruby_system.RequestType.LD.miss_latency_hist_seqr |    28692797     94.26%     94.26% |     1374068      4.51%     98.77% |      216530      0.71%     99.49% |      126272      0.41%     99.90% |       21828      0.07%     99.97% |        7606      0.02%    100.00% |         664      0.00%    100.00% |          54      0.00%    100.00% |           9      0.00%    100.00% |           0      0.00%    100.00% (Unspecified)
board.cache_hierarchy.ruby_system.RequestType.LD.miss_latency_hist_seqr::total     30439828                       (Unspecified)
board.cache_hierarchy.ruby_system.RequestType.ST.latency_hist_seqr::bucket_size          512                       (Unspecified)
board.cache_hierarchy.ruby_system.RequestType.ST.latency_hist_seqr::max_bucket         5119                       (Unspecified)
board.cache_hierarchy.ruby_system.RequestType.ST.latency_hist_seqr::samples    659903782                       (Unspecified)
board.cache_hierarchy.ruby_system.RequestType.ST.latency_hist_seqr::mean     3.749471                       (Unspecified)
board.cache_hierarchy.ruby_system.RequestType.ST.latency_hist_seqr::gmean     1.100608                       (Unspecified)
board.cache_hierarchy.ruby_system.RequestType.ST.latency_hist_seqr::stdev    25.251969                       (Unspecified)
board.cache_hierarchy.ruby_system.RequestType.ST.latency_hist_seqr |   659740886     99.98%     99.98% |      149018      0.02%    100.00% |       13634      0.00%    100.00% |         236      0.00%    100.00% |           7      0.00%    100.00% |           1      0.00%    100.00% |           0      0.00%    100.00% |           0      0.00%    100.00% |           0      0.00%    100.00% |           0      0.00%    100.00% (Unspecified)
board.cache_hierarchy.ruby_system.RequestType.ST.latency_hist_seqr::total    659903782                       (Unspecified)
board.cache_hierarchy.ruby_system.RequestType.ST.hit_latency_hist_seqr::bucket_size           32                       (Unspecified)
board.cache_hierarchy.ruby_system.RequestType.ST.hit_latency_hist_seqr::max_bucket          319                       (Unspecified)
board.cache_hierarchy.ruby_system.RequestType.ST.hit_latency_hist_seqr::samples    647911629                       (Unspecified)
board.cache_hierarchy.ruby_system.RequestType.ST.hit_latency_hist_seqr::mean     1.016197                       (Unspecified)
board.cache_hierarchy.ruby_system.RequestType.ST.hit_latency_hist_seqr::gmean     1.011167                       (Unspecified)
board.cache_hierarchy.ruby_system.RequestType.ST.hit_latency_hist_seqr::stdev     0.145703                       (Unspecified)
board.cache_hierarchy.ruby_system.RequestType.ST.hit_latency_hist_seqr |   647911235    100.00%    100.00% |         291      0.00%    100.00% |          11      0.00%    100.00% |          68      0.00%    100.00% |           3      0.00%    100.00% |          21      0.00%    100.00% |           0      0.00%    100.00% |           0      0.00%    100.00% |           0      0.00%    100.00% |           0      0.00%    100.00% (Unspecified)
board.cache_hierarchy.ruby_system.RequestType.ST.hit_latency_hist_seqr::total    647911629                       (Unspecified)
board.cache_hierarchy.ruby_system.RequestType.ST.miss_latency_hist_seqr::bucket_size          512                       (Unspecified)
board.cache_hierarchy.ruby_system.RequestType.ST.miss_latency_hist_seqr::max_bucket         5119                       (Unspecified)
board.cache_hierarchy.ruby_system.RequestType.ST.miss_latency_hist_seqr::samples     11992153                       (Unspecified)
board.cache_hierarchy.ruby_system.RequestType.ST.miss_latency_hist_seqr::mean   151.422673                       (Unspecified)
board.cache_hierarchy.ruby_system.RequestType.ST.miss_latency_hist_seqr::gmean   107.250536                       (Unspecified)
board.cache_hierarchy.ruby_system.RequestType.ST.miss_latency_hist_seqr::stdev   113.477252                       (Unspecified)
board.cache_hierarchy.ruby_system.RequestType.ST.miss_latency_hist_seqr |    11829257     98.64%     98.64% |      149018      1.24%     99.88% |       13634      0.11%    100.00% |         236      0.00%    100.00% |           7      0.00%    100.00% |           1      0.00%    100.00% |           0      0.00%    100.00% |           0      0.00%    100.00% |           0      0.00%    100.00% |           0      0.00%    100.00% (Unspecified)
board.cache_hierarchy.ruby_system.RequestType.ST.miss_latency_hist_seqr::total     11992153                       (Unspecified)
board.cache_hierarchy.ruby_system.RequestType.IFETCH.latency_hist_seqr::bucket_size          256                       (Unspecified)
board.cache_hierarchy.ruby_system.RequestType.IFETCH.latency_hist_seqr::max_bucket         2559                       (Unspecified)
board.cache_hierarchy.ruby_system.RequestType.IFETCH.latency_hist_seqr::samples    872291402                       (Unspecified)
board.cache_hierarchy.ruby_system.RequestType.IFETCH.latency_hist_seqr::mean     2.866978                       (Unspecified)
board.cache_hierarchy.ruby_system.RequestType.IFETCH.latency_hist_seqr::gmean     1.142874                       (Unspecified)
board.cache_hierarchy.ruby_system.RequestType.IFETCH.latency_hist_seqr::stdev    19.281943                       (Unspecified)
board.cache_hierarchy.ruby_system.RequestType.IFETCH.latency_hist_seqr |   871635513     99.92%     99.92% |      528739      0.06%     99.99% |       62127      0.01%     99.99% |       54210      0.01%    100.00% |        8326      0.00%    100.00% |        2300      0.00%    100.00% |         162      0.00%    100.00% |          22      0.00%    100.00% |           3      0.00%    100.00% |           0      0.00%    100.00% (Unspecified)
board.cache_hierarchy.ruby_system.RequestType.IFETCH.latency_hist_seqr::total    872291402                       (Unspecified)
board.cache_hierarchy.ruby_system.RequestType.IFETCH.hit_latency_hist_seqr::bucket_size            1                       (Unspecified)
board.cache_hierarchy.ruby_system.RequestType.IFETCH.hit_latency_hist_seqr::max_bucket            9                       (Unspecified)
board.cache_hierarchy.ruby_system.RequestType.IFETCH.hit_latency_hist_seqr::samples    831990374                       (Unspecified)
board.cache_hierarchy.ruby_system.RequestType.IFETCH.hit_latency_hist_seqr::mean     1.000017                       (Unspecified)
board.cache_hierarchy.ruby_system.RequestType.IFETCH.hit_latency_hist_seqr::gmean     1.000012                       (Unspecified)
board.cache_hierarchy.ruby_system.RequestType.IFETCH.hit_latency_hist_seqr::stdev     0.004122                       (Unspecified)
board.cache_hierarchy.ruby_system.RequestType.IFETCH.hit_latency_hist_seqr |           0      0.00%      0.00% |   831976261    100.00%    100.00% |       14106      0.00%    100.00% |           7      0.00%    100.00% |           0      0.00%    100.00% |           0      0.00%    100.00% |           0      0.00%    100.00% |           0      0.00%    100.00% |           0      0.00%    100.00% |           0      0.00%    100.00% (Unspecified)
board.cache_hierarchy.ruby_system.RequestType.IFETCH.hit_latency_hist_seqr::total    831990374                       (Unspecified)
board.cache_hierarchy.ruby_system.RequestType.IFETCH.miss_latency_hist_seqr::bucket_size          256                       (Unspecified)
board.cache_hierarchy.ruby_system.RequestType.IFETCH.miss_latency_hist_seqr::max_bucket         2559                       (Unspecified)
board.cache_hierarchy.ruby_system.RequestType.IFETCH.miss_latency_hist_seqr::samples     40301028                       (Unspecified)
board.cache_hierarchy.ruby_system.RequestType.IFETCH.miss_latency_hist_seqr::mean    41.409258                       (Unspecified)
board.cache_hierarchy.ruby_system.RequestType.IFETCH.miss_latency_hist_seqr::gmean    17.998461                       (Unspecified)
board.cache_hierarchy.ruby_system.RequestType.IFETCH.miss_latency_hist_seqr::stdev    80.559153                       (Unspecified)
board.cache_hierarchy.ruby_system.RequestType.IFETCH.miss_latency_hist_seqr |    39645139     98.37%     98.37% |      528739      1.31%     99.68% |       62127      0.15%     99.84% |       54210      0.13%     99.97% |        8326      0.02%     99.99% |        2300      0.01%    100.00% |         162      0.00%    100.00% |          22      0.00%    100.00% |           3      0.00%    100.00% |           0      0.00%    100.00% (Unspecified)
board.cache_hierarchy.ruby_system.RequestType.IFETCH.miss_latency_hist_seqr::total     40301028                       (Unspecified)
board.cache_hierarchy.ruby_system.RequestType.RMW_Read.latency_hist_seqr::bucket_size          512                       (Unspecified)
board.cache_hierarchy.ruby_system.RequestType.RMW_Read.latency_hist_seqr::max_bucket         5119                       (Unspecified)
board.cache_hierarchy.ruby_system.RequestType.RMW_Read.latency_hist_seqr::samples     27893504                       (Unspecified)
board.cache_hierarchy.ruby_system.RequestType.RMW_Read.latency_hist_seqr::mean    18.088998                       (Unspecified)
board.cache_hierarchy.ruby_system.RequestType.RMW_Read.latency_hist_seqr::gmean     1.434246                       (Unspecified)
board.cache_hierarchy.ruby_system.RequestType.RMW_Read.latency_hist_seqr::stdev    91.650230                       (Unspecified)
board.cache_hierarchy.ruby_system.RequestType.RMW_Read.latency_hist_seqr |    27545062     98.75%     98.75% |      330466      1.18%     99.94% |       14702      0.05%     99.99% |        3261      0.01%    100.00% |           6      0.00%    100.00% |           3      0.00%    100.00% |           4      0.00%    100.00% |           0      0.00%    100.00% |           0      0.00%    100.00% |           0      0.00%    100.00% (Unspecified)
board.cache_hierarchy.ruby_system.RequestType.RMW_Read.latency_hist_seqr::total     27893504                       (Unspecified)
board.cache_hierarchy.ruby_system.RequestType.RMW_Read.hit_latency_hist_seqr::bucket_size           32                       (Unspecified)
[...]
board.processor.cores3.core.fetch.nisnDist::5     51433557      2.08%     78.93% # Number of instructions fetched each cycle (Total) (Count)
board.processor.cores3.core.fetch.nisnDist::6     47981078      1.94%     80.86% # Number of instructions fetched each cycle (Total) (Count)
board.processor.cores3.core.fetch.nisnDist::7     38274545      1.55%     82.41% # Number of instructions fetched each cycle (Total) (Count)
board.processor.cores3.core.fetch.nisnDist::8    435288231     17.59%    100.00% # Number of instructions fetched each cycle (Total) (Count)
board.processor.cores3.core.fetch.nisnDist::overflows            0      0.00%    100.00% # Number of instructions fetched each cycle (Total) (Count)
board.processor.cores3.core.fetch.nisnDist::min_value            0                       # Number of instructions fetched each cycle (Total) (Count)
board.processor.cores3.core.fetch.nisnDist::max_value            8                       # Number of instructions fetched each cycle (Total) (Count)
board.processor.cores3.core.fetch.nisnDist::total   2474787003                       # Number of instructions fetched each cycle (Total) (Count)
board.processor.cores3.core.fetchStats0.numInsts   2302764090                       # Number of instructions fetched (thread level) (Count)
board.processor.cores3.core.fetchStats0.numOps            0                       # Number of ops (including micro ops) fetched (thread level) (Count)
board.processor.cores3.core.fetchStats0.fetchRate     0.818620                       # Number of inst fetches per cycle ((Count/Cycle))
board.processor.cores3.core.fetchStats0.numBranches    564089612                       # Number of branches fetched (Count)
board.processor.cores3.core.fetchStats0.branchRate     0.200531                       # Number of branch fetches per cycle (Ratio)
board.processor.cores3.core.fetchStats0.icacheStallCycles    621953924                       # ICache total stall cycles (Cycle)
board.processor.cores3.core.fetchStats0.numFetchSuspends            0                       # Number of times Execute suspended instruction fetching (Count)
board.processor.cores3.core.iew.idleCycles            0                       # Number of cycles IEW is idle (Cycle)
board.processor.cores3.core.iew.squashCycles     24766622                       # Number of cycles IEW is squashing (Cycle)
board.processor.cores3.core.iew.blockCycles    408900637                       # Number of cycles IEW is blocking (Cycle)
board.processor.cores3.core.iew.unblockCycles     68423585                       # Number of cycles IEW is unblocking (Cycle)
board.processor.cores3.core.iew.dispatchedInsts   4213433753                       # Number of instructions dispatched to IQ (Count)
board.processor.cores3.core.iew.dispSquashedInsts      3485464                       # Number of squashed instructions skipped by dispatch (Count)
board.processor.cores3.core.iew.dispLoadInsts    576108540                       # Number of dispatched load instructions (Count)
board.processor.cores3.core.iew.dispStoreInsts    326501914                       # Number of dispatched store instructions (Count)
board.processor.cores3.core.iew.dispNonSpecInsts      4848261                       # Number of dispatched non-speculative instructions (Count)
board.processor.cores3.core.iew.iqFullEvents      2961988                       # Number of times the IQ has become full, causing a stall (Count)
board.processor.cores3.core.iew.lsqFullEvents     62783987                       # Number of times the LSQ has become full, causing a stall (Count)
board.processor.cores3.core.iew.memOrderViolationEvents      1256490                       # Number of memory order violations (Count)
board.processor.cores3.core.iew.predictedTakenIncorrect      6703973                       # Number of branches that were predicted taken incorrectly (Count)
board.processor.cores3.core.iew.predictedNotTakenIncorrect     19094315                       # Number of branches that were predicted not taken incorrectly (Count)
board.processor.cores3.core.iew.branchMispredicts     25798288                       # Number of branch mispredicts detected at execute (Count)
board.processor.cores3.core.iew.instsToCommit   3909580915                       # Cumulative count of insts sent to commit (Count)
board.processor.cores3.core.iew.writebackCount   3896040048                       # Cumulative count of insts written-back (Count)
board.processor.cores3.core.iew.producerInst   2764357104                       # Number of instructions producing a value (Count)
board.processor.cores3.core.iew.consumerInst   4564987742                       # Number of instructions consuming a value (Count)
board.processor.cores3.core.iew.wbRate       1.385021                       # Insts written-back per cycle ((Count/Cycle))
board.processor.cores3.core.iew.wbFanout     0.605556                       # Average fanout of values written-back ((Count/Count))
board.processor.cores3.core.interrupts.clk_domain.clock         5328                       # Clock period in ticks (Tick)
board.processor.cores3.core.lsq0.forwLoads     58260799                       # Number of loads that had data forwarded from stores (Count)
board.processor.cores3.core.lsq0.squashedLoads    121770712                       # Number of loads squashed (Count)
board.processor.cores3.core.lsq0.ignoredResponses       325173                       # Number of memory responses ignored because the instruction is squashed (Count)
board.processor.cores3.core.lsq0.memOrderViolation      1256490                       # Number of memory ordering violations (Count)
board.processor.cores3.core.lsq0.squashedStores     68859828                       # Number of stores squashed (Count)
board.processor.cores3.core.lsq0.rescheduledLoads       423769                       # Number of loads that were rescheduled (Count)
board.processor.cores3.core.lsq0.blockedByCache       164101                       # Number of times an access to memory failed due to the cache being blocked (Count)
board.processor.cores3.core.lsq0.loadToUse::samples    454011052                       # Distribution of cycle latency between the first time a load is issued and its completion (Unspecified)
board.processor.cores3.core.lsq0.loadToUse::mean     7.191617                       # Distribution of cycle latency between the first time a load is issued and its completion (Unspecified)
board.processor.cores3.core.lsq0.loadToUse::stdev    31.726367                       # Distribution of cycle latency between the first time a load is issued and its completion (Unspecified)
board.processor.cores3.core.lsq0.loadToUse::0-9    429633839     94.63%     94.63% # Distribution of cycle latency between the first time a load is issued and its completion (Unspecified)
board.processor.cores3.core.lsq0.loadToUse::10-19     10517161      2.32%     96.95% # Distribution of cycle latency between the first time a load is issued and its completion (Unspecified)
board.processor.cores3.core.lsq0.loadToUse::20-29      3389921      0.75%     97.69% # Distribution of cycle latency between the first time a load is issued and its completion (Unspecified)
board.processor.cores3.core.lsq0.loadToUse::30-39      1323845      0.29%     97.99% # Distribution of cycle latency between the first time a load is issued and its completion (Unspecified)
board.processor.cores3.core.lsq0.loadToUse::40-49       442830      0.10%     98.08% # Distribution of cycle latency between the first time a load is issued and its completion (Unspecified)
board.processor.cores3.core.lsq0.loadToUse::50-59       208885      0.05%     98.13% # Distribution of cycle latency between the first time a load is issued and its completion (Unspecified)
board.processor.cores3.core.lsq0.loadToUse::60-69       118828      0.03%     98.16% # Distribution of cycle latency between the first time a load is issued and its completion (Unspecified)
board.processor.cores3.core.lsq0.loadToUse::70-79        81284      0.02%     98.17% # Distribution of cycle latency between the first time a load is issued and its completion (Unspecified)
board.processor.cores3.core.lsq0.loadToUse::80-89        74778      0.02%     98.19% # Distribution of cycle latency between the first time a load is issued and its completion (Unspecified)
board.processor.cores3.core.lsq0.loadToUse::90-99        84151      0.02%     98.21% # Distribution of cycle latency between the first time a load is issued and its completion (Unspecified)
board.processor.cores3.core.lsq0.loadToUse::100-109        94132      0.02%     98.23% # Distribution of cycle latency between the first time a load is issued and its completion (Unspecified)
board.processor.cores3.core.lsq0.loadToUse::110-119       169304      0.04%     98.27% # Distribution of cycle latency between the first time a load is issued and its completion (Unspecified)
board.processor.cores3.core.lsq0.loadToUse::120-129       221669      0.05%     98.31% # Distribution of cycle latency between the first time a load is issued and its completion (Unspecified)
board.processor.cores3.core.lsq0.loadToUse::130-139       553731      0.12%     98.44% # Distribution of cycle latency between the first time a load is issued and its completion (Unspecified)
board.processor.cores3.core.lsq0.loadToUse::140-149      2099116      0.46%     98.90% # Distribution of cycle latency between the first time a load is issued and its completion (Unspecified)
board.processor.cores3.core.lsq0.loadToUse::150-159       609184      0.13%     99.03% # Distribution of cycle latency between the first time a load is issued and its completion (Unspecified)
board.processor.cores3.core.lsq0.loadToUse::160-169       336823      0.07%     99.11% # Distribution of cycle latency between the first time a load is issued and its completion (Unspecified)
board.processor.cores3.core.lsq0.loadToUse::170-179       155732      0.03%     99.14% # Distribution of cycle latency between the first time a load is issued and its completion (Unspecified)
board.processor.cores3.core.lsq0.loadToUse::180-189       451297      0.10%     99.24% # Distribution of cycle latency between the first time a load is issued and its completion (Unspecified)
board.processor.cores3.core.lsq0.loadToUse::190-199       326934      0.07%     99.31% # Distribution of cycle latency between the first time a load is issued and its completion (Unspecified)
board.processor.cores3.core.lsq0.loadToUse::200-209       218259      0.05%     99.36% # Distribution of cycle latency between the first time a load is issued and its completion (Unspecified)
board.processor.cores3.core.lsq0.loadToUse::210-219       150898      0.03%     99.39% # Distribution of cycle latency between the first time a load is issued and its completion (Unspecified)
board.processor.cores3.core.lsq0.loadToUse::220-229       746067      0.16%     99.56% # Distribution of cycle latency between the first time a load is issued and its completion (Unspecified)
board.processor.cores3.core.lsq0.loadToUse::230-239       492771      0.11%     99.67% # Distribution of cycle latency between the first time a load is issued and its completion (Unspecified)
board.processor.cores3.core.lsq0.loadToUse::240-249       331747      0.07%     99.74% # Distribution of cycle latency between the first time a load is issued and its completion (Unspecified)
board.processor.cores3.core.lsq0.loadToUse::250-259       104355      0.02%     99.76% # Distribution of cycle latency between the first time a load is issued and its completion (Unspecified)
board.processor.cores3.core.lsq0.loadToUse::260-269        72456      0.02%     99.78% # Distribution of cycle latency between the first time a load is issued and its completion (Unspecified)
board.processor.cores3.core.lsq0.loadToUse::270-279        50942      0.01%     99.79% # Distribution of cycle latency between the first time a load is issued and its completion (Unspecified)
board.processor.cores3.core.lsq0.loadToUse::280-289        49279      0.01%     99.80% # Distribution of cycle latency between the first time a load is issued and its completion (Unspecified)
board.processor.cores3.core.lsq0.loadToUse::290-299        40225      0.01%     99.81% # Distribution of cycle latency between the first time a load is issued and its completion (Unspecified)
board.processor.cores3.core.lsq0.loadToUse::overflows       860609      0.19%    100.00% # Distribution of cycle latency between the first time a load is issued and its completion (Unspecified)
board.processor.cores3.core.lsq0.loadToUse::min_value            2                       # Distribution of cycle latency between the first time a load is issued and its completion (Unspecified)
board.processor.cores3.core.lsq0.loadToUse::max_value         4042                       # Distribution of cycle latency between the first time a load is issued and its completion (Unspecified)
board.processor.cores3.core.lsq0.loadToUse::total    454011052                       # Distribution of cycle latency between the first time a load is issued and its completion (Unspecified)
board.processor.cores3.core.mmu.dtb.rdAccesses    546805383                       # TLB accesses on read requests (Count)
board.processor.cores3.core.mmu.dtb.wrAccesses    303153758                       # TLB accesses on write requests (Count)
board.processor.cores3.core.mmu.dtb.rdMisses     14048583                       # TLB misses on read requests (Count)
board.processor.cores3.core.mmu.dtb.wrMisses      3396819                       # TLB misses on write requests (Count)
board.processor.cores3.core.mmu.dtb.walker.power_state.pwrStateResidencyTicks::UNDEFINED 13628612450961                       # Cumulative time (in ticks) in various power states (Tick)
board.processor.cores3.core.mmu.itb.rdAccesses            0                       # TLB accesses on read requests (Count)
board.processor.cores3.core.mmu.itb.wrAccesses    329128858                       # TLB accesses on write requests (Count)
board.processor.cores3.core.mmu.itb.rdMisses            0                       # TLB misses on read requests (Count)
board.processor.cores3.core.mmu.itb.wrMisses      5078565                       # TLB misses on write requests (Count)
board.processor.cores3.core.mmu.itb.walker.power_state.pwrStateResidencyTicks::UNDEFINED 13628612450961                       # Cumulative time (in ticks) in various power states (Tick)
board.processor.cores3.core.power_state.numTransitions        26601                       # Number of power state transitions (Count)
board.processor.cores3.core.power_state.ticksClkGated::samples        13301                       # Distribution of time spent in the clock gated state (Tick)
board.processor.cores3.core.power_state.ticksClkGated::mean 954205954.119089                       # Distribution of time spent in the clock gated state (Tick)
board.processor.cores3.core.power_state.ticksClkGated::stdev 3648862242.255667                       # Distribution of time spent in the clock gated state (Tick)
board.processor.cores3.core.power_state.ticksClkGated::1000-5e+10        13300     99.99%     99.99% # Distribution of time spent in the clock gated state (Tick)
board.processor.cores3.core.power_state.ticksClkGated::4e+11-4.5e+11            1      0.01%    100.00% # Distribution of time spent in the clock gated state (Tick)
board.processor.cores3.core.power_state.ticksClkGated::min_value        22312                       # Distribution of time spent in the clock gated state (Tick)
board.processor.cores3.core.power_state.ticksClkGated::max_value 419959014274                       # Distribution of time spent in the clock gated state (Tick)
board.processor.cores3.core.power_state.ticksClkGated::total        13301                       # Distribution of time spent in the clock gated state (Tick)
board.processor.cores3.core.power_state.pwrStateResidencyTicks::ON 936719055223                       # Cumulative time (in ticks) in various power states (Tick)
board.processor.cores3.core.power_state.pwrStateResidencyTicks::CLK_GATED 12691893395738                       # Cumulative time (in ticks) in various power states (Tick)
board.processor.cores3.core.rename.squashCycles     24766622                       # Number of cycles rename is squashing (Cycle)
board.processor.cores3.core.rename.idleCycles    641587780                       # Number of cycles rename is idle (Cycle)
board.processor.cores3.core.rename.blockCycles    621906643                       # Number of cycles rename is blocking (Cycle)
board.processor.cores3.core.rename.serializeStallCycles    108427531                       # count of cycles rename stalled for serializing inst (Cycle)
board.processor.cores3.core.rename.runCycles    631202966                       # Number of cycles rename is running (Cycle)
board.processor.cores3.core.rename.unblockCycles    446895461                       # Number of cycles rename is unblocking (Cycle)
board.processor.cores3.core.rename.renamedInsts   4351979046                       # Number of instructions processed by rename (Count)
board.processor.cores3.core.rename.ROBFullEvents     13719245                       # Number of times rename has blocked due to ROB full (Count)
board.processor.cores3.core.rename.IQFullEvents     62181298                       # Number of times rename has blocked due to IQ full (Count)
board.processor.cores3.core.rename.LQFullEvents     26753320                       # Number of times rename has blocked due to LQ full (Count)
board.processor.cores3.core.rename.SQFullEvents    342866424                       # Number of times rename has blocked due to SQ full (Count)
board.processor.cores3.core.rename.fullRegistersEvents         2131                       # Number of times there has been no free registers (Count)
board.processor.cores3.core.rename.renamedOperands   6969100405                       # Number of destination operands rename has renamed (Count)
board.processor.cores3.core.rename.lookups  14257158665                       # Number of register rename lookups that rename has made (Count)
board.processor.cores3.core.rename.intLookups   5527894928                       # Number of integer rename lookups (Count)
board.processor.cores3.core.rename.fpLookups     94079115                       # Number of floating rename lookups (Count)
board.processor.cores3.core.rename.committedMaps   5468325759                       # Number of HB maps that are committed (Count)
board.processor.cores3.core.rename.undoneMaps   1500774591                       # Number of HB maps that are undone due to squashing (Count)
board.processor.cores3.core.rename.serializing      4498823                       # count of serializing insts renamed (Count)
board.processor.cores3.core.rename.tempSerializing      3222115                       # count of temporary serializing insts renamed (Count)
board.processor.cores3.core.rename.skidInsts    297580102                       # count of insts added to the skid buffer (Count)
board.processor.cores3.core.rob.reads      6332517992                       # The number of ROB reads (Count)
board.processor.cores3.core.rob.writes     8518054484                       # The number of ROB writes (Count)
board.processor.cores3.core.thread_0.numInsts   1645922079                       # Number of Instructions committed (Count)
board.processor.cores3.core.thread_0.numOps   3379056384                       # Number of Ops committed (Count)
board.processor.cores3.core.thread_0.numMemRefs            0                       # Number of Memory References (Count)
board.workload.inst.arm                             0                       # number of arm instructions executed (Count)
board.workload.inst.quiesce                         0                       # number of quiesce instructions executed (Count)

---------- End Simulation Statistics   ----------
