
---------- Begin Simulation Statistics ----------
simSeconds                                  13.522611                       # Number of seconds simulated (Second)
simTicks                                 13522611196323                       # Number of ticks simulated (Tick)
finalTick                                13522611196323                       # Number of ticks from beginning of simulation (restored from checkpoints and never reset) (Tick)
simFreq                                  1000000000000                       # The number of ticks per simulated second ((Tick/Second))
hostSeconds                                 127297.74                       # Real time elapsed on the host (Second)
hostTickRate                                106228208                       # The number of ticks simulated per host second (ticks/s) ((Tick/Second))
hostMemory                                   29208900                       # Number of bytes of host memory used (Byte)
simInsts                                   5475217056                       # Number of instructions simulated (Count)
simOps                                    12258942852                       # Number of ops (including micro ops) simulated (Count)
hostInstRate                                    43011                       # Simulator instruction rate (inst/s) ((Count/Second))
hostOpRate                                      96301                       # Simulator op (including micro ops) rate (op/s) ((Count/Second))
board.cache_hierarchy.ruby_system.m_outstandReqHistSeqr::bucket_size            2                       (Unspecified)
board.cache_hierarchy.ruby_system.m_outstandReqHistSeqr::max_bucket           19                       (Unspecified)
board.cache_hierarchy.ruby_system.m_outstandReqHistSeqr::samples   3000022982                       (Unspecified)
board.cache_hierarchy.ruby_system.m_outstandReqHistSeqr::mean     1.633030                       (Unspecified)
board.cache_hierarchy.ruby_system.m_outstandReqHistSeqr::gmean     1.381326                       (Unspecified)
board.cache_hierarchy.ruby_system.m_outstandReqHistSeqr::stdev     1.396054                       (Unspecified)
board.cache_hierarchy.ruby_system.m_outstandReqHistSeqr |  1957930853     65.26%     65.26% |   879208004     29.31%     94.57% |   105605181      3.52%     98.09% |    23968398      0.80%     98.89% |    11411125      0.38%     99.27% |     8139176      0.27%     99.54% |     6139830      0.20%     99.75% |     4601444      0.15%     99.90% |     3018971      0.10%    100.00% |           0      0.00%    100.00% (Unspecified)
board.cache_hierarchy.ruby_system.m_outstandReqHistSeqr::total   3000022982                       (Unspecified)
board.cache_hierarchy.ruby_system.m_latencyHistSeqr::bucket_size          256                       (Unspecified)
board.cache_hierarchy.ruby_system.m_latencyHistSeqr::max_bucket         2559                       (Unspecified)
board.cache_hierarchy.ruby_system.m_latencyHistSeqr::samples   3012513157                       (Unspecified)
board.cache_hierarchy.ruby_system.m_latencyHistSeqr::mean     2.705067                       (Unspecified)
board.cache_hierarchy.ruby_system.m_latencyHistSeqr::gmean     1.072241                       (Unspecified)
board.cache_hierarchy.ruby_system.m_latencyHistSeqr::stdev    21.572280                       (Unspecified)
board.cache_hierarchy.ruby_system.m_latencyHistSeqr |  3009465369     99.90%     99.90% |     2114348      0.07%     99.97% |      629684      0.02%     99.99% |      249931      0.01%    100.00% |       31720      0.00%    100.00% |       11319      0.00%    100.00% |       10302      0.00%    100.00% |         476      0.00%    100.00% |           7      0.00%    100.00% |           1      0.00%    100.00% (Unspecified)
board.cache_hierarchy.ruby_system.m_latencyHistSeqr::total   3012513157                       (Unspecified)
board.cache_hierarchy.ruby_system.m_hitLatencyHistSeqr::bucket_size           32                       (Unspecified)
board.cache_hierarchy.ruby_system.m_hitLatencyHistSeqr::max_bucket          319                       (Unspecified)
board.cache_hierarchy.ruby_system.m_hitLatencyHistSeqr::samples   2957184693                       (Unspecified)
board.cache_hierarchy.ruby_system.m_hitLatencyHistSeqr::mean     1.005070                       (Unspecified)
board.cache_hierarchy.ruby_system.m_hitLatencyHistSeqr::gmean     1.003342                       (Unspecified)
board.cache_hierarchy.ruby_system.m_hitLatencyHistSeqr::stdev     0.099056                       (Unspecified)
board.cache_hierarchy.ruby_system.m_hitLatencyHistSeqr |  2957184167    100.00%    100.00% |         431      0.00%    100.00% |          12      0.00%    100.00% |          44      0.00%    100.00% |           4      0.00%    100.00% |          35      0.00%    100.00% |           0      0.00%    100.00% |           0      0.00%    100.00% |           0      0.00%    100.00% |           0      0.00%    100.00% (Unspecified)
board.cache_hierarchy.ruby_system.m_hitLatencyHistSeqr::total   2957184693                       (Unspecified)
board.cache_hierarchy.ruby_system.m_missLatencyHistSeqr::bucket_size          256                       (Unspecified)
board.cache_hierarchy.ruby_system.m_missLatencyHistSeqr::max_bucket         2559                       (Unspecified)
board.cache_hierarchy.ruby_system.m_missLatencyHistSeqr::samples     55328464                       (Unspecified)
board.cache_hierarchy.ruby_system.m_missLatencyHistSeqr::mean    93.566174                       (Unspecified)
board.cache_hierarchy.ruby_system.m_missLatencyHistSeqr::gmean    37.318135                       (Unspecified)
board.cache_hierarchy.ruby_system.m_missLatencyHistSeqr::stdev   130.104872                       (Unspecified)
board.cache_hierarchy.ruby_system.m_missLatencyHistSeqr |    52280676     94.49%     94.49% |     2114348      3.82%     98.31% |      629684      1.14%     99.45% |      249931      0.45%     99.90% |       31720      0.06%     99.96% |       11319      0.02%     99.98% |       10302      0.02%    100.00% |         476      0.00%    100.00% |           7      0.00%    100.00% |           1      0.00%    100.00% (Unspecified)
board.cache_hierarchy.ruby_system.m_missLatencyHistSeqr::total     55328464                       (Unspecified)
board.cache_hierarchy.ruby_system.Directory_Controller.GETX      9771062      0.00%      0.00% (Unspecified)
board.cache_hierarchy.ruby_system.Directory_Controller.GETS     12983521      0.00%      0.00% (Unspecified)
board.cache_hierarchy.ruby_system.Directory_Controller.PUTX      9727829      0.00%      0.00% (Unspecified)
board.cache_hierarchy.ruby_system.Directory_Controller.PUTO_SHARERS         3591      0.00%      0.00% (Unspecified)
board.cache_hierarchy.ruby_system.Directory_Controller.Unblock      4876581      0.00%      0.00% (Unspecified)
board.cache_hierarchy.ruby_system.Directory_Controller.Last_Unblock      8120817      0.00%      0.00% (Unspecified)
board.cache_hierarchy.ruby_system.Directory_Controller.Exclusive_Unblock     11076908      0.00%      0.00% (Unspecified)
board.cache_hierarchy.ruby_system.Directory_Controller.Dirty_Writeback      9731420      0.00%      0.00% (Unspecified)
board.cache_hierarchy.ruby_system.Directory_Controller.Memory_Data_DMA        65289      0.00%      0.00% (Unspecified)
board.cache_hierarchy.ruby_system.Directory_Controller.Memory_Data_Cache     22754406      0.00%      0.00% (Unspecified)
board.cache_hierarchy.ruby_system.Directory_Controller.Memory_Ack     11037308      0.00%      0.00% (Unspecified)
board.cache_hierarchy.ruby_system.Directory_Controller.DMA_READ        74868      0.00%      0.00% (Unspecified)
board.cache_hierarchy.ruby_system.Directory_Controller.DMA_WRITE_LINE      1305888      0.00%      0.00% (Unspecified)
board.cache_hierarchy.ruby_system.Directory_Controller.DMA_ACK         9579      0.00%      0.00% (Unspecified)
board.cache_hierarchy.ruby_system.Directory_Controller.Data        29072      0.00%      0.00% (Unspecified)
board.cache_hierarchy.ruby_system.Directory_Controller.All_Acks      1305888      0.00%      0.00% (Unspecified)
board.cache_hierarchy.ruby_system.Directory_Controller.I.GETX      5925195      0.00%      0.00% (Unspecified)
board.cache_hierarchy.ruby_system.Directory_Controller.I.GETS      4876581      0.00%      0.00% (Unspecified)
board.cache_hierarchy.ruby_system.Directory_Controller.I.DMA_READ        51277      0.00%      0.00% (Unspecified)
board.cache_hierarchy.ruby_system.Directory_Controller.I.DMA_WRITE_LINE      1150386      0.00%      0.00% (Unspecified)
board.cache_hierarchy.ruby_system.Directory_Controller.S.GETX      3845825      0.00%      0.00% (Unspecified)
board.cache_hierarchy.ruby_system.Directory_Controller.S.GETS      8106805      0.00%      0.00% (Unspecified)
board.cache_hierarchy.ruby_system.Directory_Controller.S.DMA_READ        14012      0.00%      0.00% (Unspecified)
board.cache_hierarchy.ruby_system.Directory_Controller.S.DMA_WRITE_LINE       126430      0.00%      0.00% (Unspecified)
board.cache_hierarchy.ruby_system.Directory_Controller.M.PUTX      9727829      0.00%      0.00% (Unspecified)
board.cache_hierarchy.ruby_system.Directory_Controller.M.PUTO_SHARERS         3591      0.00%      0.00% (Unspecified)
board.cache_hierarchy.ruby_system.Directory_Controller.M.DMA_READ         9579      0.00%      0.00% (Unspecified)
board.cache_hierarchy.ruby_system.Directory_Controller.M.DMA_WRITE_LINE        29072      0.00%      0.00% (Unspecified)
board.cache_hierarchy.ruby_system.Directory_Controller.IS_M.Memory_Data_Cache      4876581      0.00%      0.00% (Unspecified)
board.cache_hierarchy.ruby_system.Directory_Controller.IS.Unblock      4876581      0.00%      0.00% (Unspecified)
board.cache_hierarchy.ruby_system.Directory_Controller.SS.Last_Unblock      8120817      0.00%      0.00% (Unspecified)
board.cache_hierarchy.ruby_system.Directory_Controller.SS.Memory_Data_DMA        14012      0.00%      0.00% (Unspecified)
board.cache_hierarchy.ruby_system.Directory_Controller.SS.Memory_Data_Cache      8106805      0.00%      0.00% (Unspecified)
board.cache_hierarchy.ruby_system.Directory_Controller.MM_M.Memory_Data_Cache      9771020      0.00%      0.00% (Unspecified)
board.cache_hierarchy.ruby_system.Directory_Controller.MM.Exclusive_Unblock      9771020      0.00%      0.00% (Unspecified)
board.cache_hierarchy.ruby_system.Directory_Controller.MI.Dirty_Writeback      9727829      0.00%      0.00% (Unspecified)
board.cache_hierarchy.ruby_system.Directory_Controller.MIS.Dirty_Writeback         3591      0.00%      0.00% (Unspecified)
board.cache_hierarchy.ruby_system.Directory_Controller.WBI.GETX           42      0.00%      0.00% (Unspecified)
board.cache_hierarchy.ruby_system.Directory_Controller.WBI.GETS          135      0.00%      0.00% (Unspecified)
board.cache_hierarchy.ruby_system.Directory_Controller.WBI.Memory_Ack      9727829      0.00%      0.00% (Unspecified)
board.cache_hierarchy.ruby_system.Directory_Controller.WBS.Memory_Ack         3591      0.00%      0.00% (Unspecified)
board.cache_hierarchy.ruby_system.Directory_Controller.XI_M.Memory_Data_DMA        51277      0.00%      0.00% (Unspecified)
board.cache_hierarchy.ruby_system.Directory_Controller.XI_U.Exclusive_Unblock      1305888      0.00%      0.00% (Unspecified)
board.cache_hierarchy.ruby_system.Directory_Controller.XI_U.Memory_Ack      1305888      0.00%      0.00% (Unspecified)
board.cache_hierarchy.ruby_system.Directory_Controller.XI_U.All_Acks      1305888      0.00%      0.00% (Unspecified)
board.cache_hierarchy.ruby_system.Directory_Controller.OI_D.Data        29072      0.00%      0.00% (Unspecified)
board.cache_hierarchy.ruby_system.Directory_Controller.MD.DMA_ACK         9579      0.00%      0.00% (Unspecified)
board.cache_hierarchy.ruby_system.DMA_Controller.ReadRequest |     2182786    100.00%    100.00% |           0      0.00%    100.00% (Unspecified)
board.cache_hierarchy.ruby_system.DMA_Controller.ReadRequest::total      2182786                       (Unspecified)
board.cache_hierarchy.ruby_system.DMA_Controller.WriteRequest |    41370020    100.00%    100.00% |           0      0.00%    100.00% (Unspecified)
board.cache_hierarchy.ruby_system.DMA_Controller.WriteRequest::total     41370020                       (Unspecified)
board.cache_hierarchy.ruby_system.DMA_Controller.Data |       74868    100.00%    100.00% |           0      0.00%    100.00% (Unspecified)
board.cache_hierarchy.ruby_system.DMA_Controller.Data::total        74868                       (Unspecified)
board.cache_hierarchy.ruby_system.DMA_Controller.DMA_Ack |     1305888    100.00%    100.00% |           0      0.00%    100.00% (Unspecified)
board.cache_hierarchy.ruby_system.DMA_Controller.DMA_Ack::total      1305888                       (Unspecified)
board.cache_hierarchy.ruby_system.DMA_Controller.Inv_Ack |      126430    100.00%    100.00% |           0      0.00%    100.00% (Unspecified)
board.cache_hierarchy.ruby_system.DMA_Controller.Inv_Ack::total       126430                       (Unspecified)
board.cache_hierarchy.ruby_system.DMA_Controller.All_Acks |     1305888    100.00%    100.00% |           0      0.00%    100.00% (Unspecified)
board.cache_hierarchy.ruby_system.DMA_Controller.All_Acks::total      1305888                       (Unspecified)
board.cache_hierarchy.ruby_system.DMA_Controller.READY.ReadRequest |       74868    100.00%    100.00% |           0      0.00%    100.00% (Unspecified)
board.cache_hierarchy.ruby_system.DMA_Controller.READY.ReadRequest::total        74868                       (Unspecified)
board.cache_hierarchy.ruby_system.DMA_Controller.READY.WriteRequest |     1305888    100.00%    100.00% |           0      0.00%    100.00% (Unspecified)
board.cache_hierarchy.ruby_system.DMA_Controller.READY.WriteRequest::total      1305888                       (Unspecified)
board.cache_hierarchy.ruby_system.DMA_Controller.BUSY_RD.ReadRequest |     2107918    100.00%    100.00% |           0      0.00%    100.00% (Unspecified)
board.cache_hierarchy.ruby_system.DMA_Controller.BUSY_RD.ReadRequest::total      2107918                       (Unspecified)
board.cache_hierarchy.ruby_system.DMA_Controller.BUSY_RD.Data |       74868    100.00%    100.00% |           0      0.00%    100.00% (Unspecified)
board.cache_hierarchy.ruby_system.DMA_Controller.BUSY_RD.Data::total        74868                       (Unspecified)
board.cache_hierarchy.ruby_system.DMA_Controller.BUSY_WR.WriteRequest |    40064132    100.00%    100.00% |           0      0.00%    100.00% (Unspecified)
board.cache_hierarchy.ruby_system.DMA_Controller.BUSY_WR.WriteRequest::total     40064132                       (Unspecified)
board.cache_hierarchy.ruby_system.DMA_Controller.BUSY_WR.DMA_Ack |     1305888    100.00%    100.00% |           0      0.00%    100.00% (Unspecified)
board.cache_hierarchy.ruby_system.DMA_Controller.BUSY_WR.DMA_Ack::total      1305888                       (Unspecified)
board.cache_hierarchy.ruby_system.DMA_Controller.BUSY_WR.Inv_Ack |      126430    100.00%    100.00% |           0      0.00%    100.00% (Unspecified)
board.cache_hierarchy.ruby_system.DMA_Controller.BUSY_WR.Inv_Ack::total       126430                       (Unspecified)
board.cache_hierarchy.ruby_system.DMA_Controller.BUSY_WR.All_Acks |     1305888    100.00%    100.00% |           0      0.00%    100.00% (Unspecified)
board.cache_hierarchy.ruby_system.DMA_Controller.BUSY_WR.All_Acks::total      1305888                       (Unspecified)
board.cache_hierarchy.ruby_system.L1Cache_Controller.Load |   530190262     37.40%     37.40% |   197194909     13.91%     51.30% |   179975771     12.69%     64.00% |   510431203     36.00%    100.00% (Unspecified)
board.cache_hierarchy.ruby_system.L1Cache_Controller.Load::total   1417792145                       (Unspecified)
board.cache_hierarchy.ruby_system.L1Cache_Controller.Ifetch |   237537292     26.77%     26.77% |   169759665     19.13%     45.89% |   129613205     14.60%     60.50% |   350549095     39.50%    100.00% (Unspecified)
board.cache_hierarchy.ruby_system.L1Cache_Controller.Ifetch::total    887459257                       (Unspecified)
board.cache_hierarchy.ruby_system.L1Cache_Controller.Store |   183308567     25.92%     25.92% |   126114004     17.83%     43.75% |   109341880     15.46%     59.21% |   288535314     40.79%    100.00% (Unspecified)
board.cache_hierarchy.ruby_system.L1Cache_Controller.Store::total    707299765                       (Unspecified)
board.cache_hierarchy.ruby_system.L1Cache_Controller.L1_Replacement |     9096279     17.58%     17.58% |     9504659     18.37%     35.96% |     7175048     13.87%     49.83% |    25954168     50.17%    100.00% (Unspecified)
board.cache_hierarchy.ruby_system.L1Cache_Controller.L1_Replacement::total     51730154                       (Unspecified)
board.cache_hierarchy.ruby_system.L1Cache_Controller.Own_GETX |        2299     21.13%     21.13% |        3710     34.11%     55.24% |        2975     27.35%     82.59% |        1894     17.41%    100.00% (Unspecified)
board.cache_hierarchy.ruby_system.L1Cache_Controller.Own_GETX::total        10878                       (Unspecified)
board.cache_hierarchy.ruby_system.L1Cache_Controller.Fwd_GETX |      129024     21.78%     21.78% |      240069     40.53%     62.31% |       91382     15.43%     77.74% |      131883     22.26%    100.00% (Unspecified)
board.cache_hierarchy.ruby_system.L1Cache_Controller.Fwd_GETX::total       592358                       (Unspecified)
board.cache_hierarchy.ruby_system.L1Cache_Controller.Fwd_GETS |      659276     31.48%     31.48% |      675098     32.23%     63.71% |      365273     17.44%     81.16% |      394667     18.84%    100.00% (Unspecified)
board.cache_hierarchy.ruby_system.L1Cache_Controller.Fwd_GETS::total      2094314                       (Unspecified)
board.cache_hierarchy.ruby_system.L1Cache_Controller.Fwd_DMA |        2900     32.64%     32.64% |        1779     20.02%     52.67% |        1631     18.36%     71.03% |        2574     28.97%    100.00% (Unspecified)
board.cache_hierarchy.ruby_system.L1Cache_Controller.Fwd_DMA::total         8884                       (Unspecified)
board.cache_hierarchy.ruby_system.L1Cache_Controller.Inv |       24392     11.82%     11.82% |       29817     14.45%     26.28% |       74342     36.04%     62.32% |       77727     37.68%    100.00% (Unspecified)
board.cache_hierarchy.ruby_system.L1Cache_Controller.Inv::total       206278                       (Unspecified)
board.cache_hierarchy.ruby_system.L1Cache_Controller.Ack |      284355     37.20%     37.20% |      207841     27.19%     64.39% |      112750     14.75%     79.13% |      159505     20.87%    100.00% (Unspecified)
board.cache_hierarchy.ruby_system.L1Cache_Controller.Ack::total       764451                       (Unspecified)
board.cache_hierarchy.ruby_system.L1Cache_Controller.Data |     5615582     14.72%     14.72% |     6631278     17.38%     32.10% |     4795099     12.57%     44.67% |    21107371     55.33%    100.00% (Unspecified)
board.cache_hierarchy.ruby_system.L1Cache_Controller.Data::total     38149330                       (Unspecified)
board.cache_hierarchy.ruby_system.L1Cache_Controller.Exclusive_Data |     4829458     28.13%     28.13% |     3647751     21.25%     49.38% |     2970532     17.30%     66.68% |     5720515     33.32%    100.00% (Unspecified)
board.cache_hierarchy.ruby_system.L1Cache_Controller.Exclusive_Data::total     17168256                       (Unspecified)
board.cache_hierarchy.ruby_system.L1Cache_Controller.Writeback_Ack |     2757081     11.80%     11.80% |     1963943      8.40%     20.20% |     2510231     10.74%     30.94% |    16140165     69.06%    100.00% (Unspecified)
board.cache_hierarchy.ruby_system.L1Cache_Controller.Writeback_Ack::total     23371420                       (Unspecified)
board.cache_hierarchy.ruby_system.L1Cache_Controller.Writeback_Ack_Data |     6193148     22.21%     22.21% |     7427397     26.63%     48.84% |     4565070     16.37%     65.21% |     9702818     34.79%    100.00% (Unspecified)
board.cache_hierarchy.ruby_system.L1Cache_Controller.Writeback_Ack_Data::total     27888433                       (Unspecified)
board.cache_hierarchy.ruby_system.L1Cache_Controller.Writeback_Nack |           0      0.00%      0.00% |           3     27.27%     27.27% |           6     54.55%     81.82% |           2     18.18%    100.00% (Unspecified)
board.cache_hierarchy.ruby_system.L1Cache_Controller.Writeback_Nack::total           11                       (Unspecified)
board.cache_hierarchy.ruby_system.L1Cache_Controller.All_acks |     3898810     31.26%     31.26% |     2930450     23.50%     54.76% |     1833295     14.70%     69.46% |     3809192     30.54%    100.00% (Unspecified)
board.cache_hierarchy.ruby_system.L1Cache_Controller.All_acks::total     12471747                       (Unspecified)
board.cache_hierarchy.ruby_system.L1Cache_Controller.Use_Timeout |     4831757     28.13%     28.13% |     3651461     21.26%     49.38% |     2973507     17.31%     66.69% |     5722409     33.31%    100.00% (Unspecified)
board.cache_hierarchy.ruby_system.L1Cache_Controller.Use_Timeout::total     17179134                       (Unspecified)
board.cache_hierarchy.ruby_system.L1Cache_Controller.I.Load |     3819145     16.95%     16.95% |     5468638     24.27%     41.21% |     3595192     15.95%     57.17% |     9653195     42.83%    100.00% (Unspecified)
board.cache_hierarchy.ruby_system.L1Cache_Controller.I.Load::total     22536170                       (Unspecified)
board.cache_hierarchy.ruby_system.L1Cache_Controller.I.Ifetch |     2729384     13.43%     13.43% |     1883652      9.27%     22.70% |     2340119     11.52%     34.22% |    13367393     65.78%    100.00% (Unspecified)
board.cache_hierarchy.ruby_system.L1Cache_Controller.I.Ifetch::total     20320548                       (Unspecified)
board.cache_hierarchy.ruby_system.L1Cache_Controller.I.Store |     2747838     27.94%     27.94% |     2482611     25.25%     53.19% |     1405101     14.29%     67.48% |     3198064     32.52%    100.00% (Unspecified)
board.cache_hierarchy.ruby_system.L1Cache_Controller.I.Store::total      9833614                       (Unspecified)
board.cache_hierarchy.ruby_system.L1Cache_Controller.I.L1_Replacement |      145920     31.04%     31.04% |      113286     24.10%     55.15% |       99741     21.22%     76.37% |      111089     23.63%    100.00% (Unspecified)
board.cache_hierarchy.ruby_system.L1Cache_Controller.I.L1_Replacement::total       470036                       (Unspecified)
board.cache_hierarchy.ruby_system.L1Cache_Controller.S.Load |    84824692     22.44%     22.44% |    83669032     22.14%     44.58% |    44663991     11.82%     56.40% |   164790523     43.60%    100.00% (Unspecified)
board.cache_hierarchy.ruby_system.L1Cache_Controller.S.Load::total    377948238                       (Unspecified)
board.cache_hierarchy.ruby_system.L1Cache_Controller.S.Ifetch |   197091561     23.76%     23.76% |   167875150     20.24%     44.00% |   127266615     15.34%     59.35% |   337176109     40.65%    100.00% (Unspecified)
board.cache_hierarchy.ruby_system.L1Cache_Controller.S.Ifetch::total    829409435                       (Unspecified)
board.cache_hierarchy.ruby_system.L1Cache_Controller.S.Store |     1148653     43.72%     43.72% |      444103     16.90%     60.63% |      425201     16.18%     76.81% |      609222     23.19%    100.00% (Unspecified)
board.cache_hierarchy.ruby_system.L1Cache_Controller.S.Store::total      2627179                       (Unspecified)
board.cache_hierarchy.ruby_system.L1Cache_Controller.S.L1_Replacement |     4440468     12.58%     12.58% |     6155064     17.43%     30.01% |     4292914     12.16%     42.17% |    20417711     57.83%    100.00% (Unspecified)
board.cache_hierarchy.ruby_system.L1Cache_Controller.S.L1_Replacement::total     35306157                       (Unspecified)
board.cache_hierarchy.ruby_system.L1Cache_Controller.S.Fwd_GETS |      391098     40.53%     40.53% |      242752     25.16%     65.69% |      198498     20.57%     86.27% |      132517     13.73%    100.00% (Unspecified)
board.cache_hierarchy.ruby_system.L1Cache_Controller.S.Fwd_GETS::total       964865                       (Unspecified)
board.cache_hierarchy.ruby_system.L1Cache_Controller.S.Inv |       24172     11.78%     11.78% |       29537     14.39%     26.17% |       74080     36.09%     62.26% |       77448     37.74%    100.00% (Unspecified)
board.cache_hierarchy.ruby_system.L1Cache_Controller.S.Inv::total       205237                       (Unspecified)
board.cache_hierarchy.ruby_system.L1Cache_Controller.O.Load |      476310     27.79%     27.79% |      425365     24.81%     52.60% |      352457     20.56%     73.16% |      460017     26.84%    100.00% (Unspecified)
board.cache_hierarchy.ruby_system.L1Cache_Controller.O.Load::total      1714149                       (Unspecified)
board.cache_hierarchy.ruby_system.L1Cache_Controller.O.Ifetch |      706019     99.98%     99.98% |           0      0.00%     99.98% |          43      0.01%     99.99% |          63      0.01%    100.00% (Unspecified)
board.cache_hierarchy.ruby_system.L1Cache_Controller.O.Ifetch::total       706125                       (Unspecified)
board.cache_hierarchy.ruby_system.L1Cache_Controller.O.Store |        2319     21.17%     21.17% |        3736     34.11%     55.28% |        2993     27.32%     82.60% |        1906     17.40%    100.00% (Unspecified)
board.cache_hierarchy.ruby_system.L1Cache_Controller.O.Store::total        10954                       (Unspecified)
board.cache_hierarchy.ruby_system.L1Cache_Controller.O.L1_Replacement |        5889     24.73%     24.73% |        6300     26.46%     51.19% |        5824     24.46%     75.65% |        5797     24.35%    100.00% (Unspecified)
board.cache_hierarchy.ruby_system.L1Cache_Controller.O.L1_Replacement::total        23810                       (Unspecified)
board.cache_hierarchy.ruby_system.L1Cache_Controller.O.Fwd_GETX |       26828     14.80%     14.80% |      101846     56.19%     70.99% |       23540     12.99%     83.98% |       29042     16.02%    100.00% (Unspecified)
board.cache_hierarchy.ruby_system.L1Cache_Controller.O.Fwd_GETX::total       181256                       (Unspecified)
board.cache_hierarchy.ruby_system.L1Cache_Controller.O.Fwd_GETS |       21532     14.49%     14.49% |       87157     58.66%     73.15% |       20721     13.95%     87.09% |       19180     12.91%    100.00% (Unspecified)
board.cache_hierarchy.ruby_system.L1Cache_Controller.O.Fwd_GETS::total       148590                       (Unspecified)
board.cache_hierarchy.ruby_system.L1Cache_Controller.O.Fwd_DMA |           0      0.00%      0.00% |           0      0.00%      0.00% |           0      0.00%      0.00% |           1    100.00%    100.00% (Unspecified)
board.cache_hierarchy.ruby_system.L1Cache_Controller.O.Fwd_DMA::total            1                       (Unspecified)
board.cache_hierarchy.ruby_system.L1Cache_Controller.M.Load |     9767955      9.62%      9.62% |    14296803     14.09%     23.71% |    32367245     31.89%     55.60% |    45061302     44.40%    100.00% (Unspecified)
board.cache_hierarchy.ruby_system.L1Cache_Controller.M.Load::total    101493305                       (Unspecified)
board.cache_hierarchy.ruby_system.L1Cache_Controller.M.Ifetch |    37004882    100.00%    100.00% |          33      0.00%    100.00% |          21      0.00%    100.00% |          20      0.00%    100.00% (Unspecified)
board.cache_hierarchy.ruby_system.L1Cache_Controller.M.Ifetch::total     37004956                       (Unspecified)
board.cache_hierarchy.ruby_system.L1Cache_Controller.M.Store |      329641     24.03%     24.03% |      223807     16.32%     40.35% |      308494     22.49%     62.84% |      509609     37.16%    100.00% (Unspecified)
board.cache_hierarchy.ruby_system.L1Cache_Controller.M.Store::total      1371551                       (Unspecified)
board.cache_hierarchy.ruby_system.L1Cache_Controller.M.L1_Replacement |      300408     14.65%     14.65% |      251127     12.24%     26.89% |      539313     26.29%     53.18% |      960333     46.82%    100.00% (Unspecified)
board.cache_hierarchy.ruby_system.L1Cache_Controller.M.L1_Replacement::total      2051181                       (Unspecified)
board.cache_hierarchy.ruby_system.L1Cache_Controller.M.Fwd_GETX |        9588     17.92%     17.92% |       19110     35.71%     53.63% |       11711     21.89%     75.52% |       13101     24.48%    100.00% (Unspecified)
board.cache_hierarchy.ruby_system.L1Cache_Controller.M.Fwd_GETX::total        53510                       (Unspecified)
board.cache_hierarchy.ruby_system.L1Cache_Controller.M.Fwd_GETS |       35040     16.22%     16.22% |      111883     51.79%     68.01% |       32362     14.98%     82.99% |       36752     17.01%    100.00% (Unspecified)
board.cache_hierarchy.ruby_system.L1Cache_Controller.M.Fwd_GETS::total       216037                       (Unspecified)
board.cache_hierarchy.ruby_system.L1Cache_Controller.M.Fwd_DMA |         123     99.19%     99.19% |           0      0.00%     99.19% |           0      0.00%     99.19% |           1      0.81%    100.00% (Unspecified)
board.cache_hierarchy.ruby_system.L1Cache_Controller.M.Fwd_DMA::total          124                       (Unspecified)
board.cache_hierarchy.ruby_system.L1Cache_Controller.M_W.Load |      631072     20.06%     20.06% |      690261     21.94%     42.00% |      686313     21.81%     63.81% |     1138626     36.19%    100.00% (Unspecified)
board.cache_hierarchy.ruby_system.L1Cache_Controller.M_W.Load::total      3146272                       (Unspecified)
board.cache_hierarchy.ruby_system.L1Cache_Controller.M_W.Ifetch |         119     83.22%     83.22% |          12      8.39%     91.61% |           4      2.80%     94.41% |           8      5.59%    100.00% (Unspecified)
board.cache_hierarchy.ruby_system.L1Cache_Controller.M_W.Ifetch::total          143                       (Unspecified)
board.cache_hierarchy.ruby_system.L1Cache_Controller.M_W.Store |      258252     25.45%     25.45% |      114999     11.33%     36.78% |      248274     24.46%     61.24% |      393382     38.76%    100.00% (Unspecified)
board.cache_hierarchy.ruby_system.L1Cache_Controller.M_W.Store::total      1014907                       (Unspecified)
board.cache_hierarchy.ruby_system.L1Cache_Controller.M_W.L1_Replacement |          90    100.00%    100.00% |           0      0.00%    100.00% |           0      0.00%    100.00% |           0      0.00%    100.00% (Unspecified)
board.cache_hierarchy.ruby_system.L1Cache_Controller.M_W.L1_Replacement::total           90                       (Unspecified)
board.cache_hierarchy.ruby_system.L1Cache_Controller.M_W.Fwd_GETX |        1233      6.25%      6.25% |       16221     82.26%     88.51% |        1018      5.16%     93.67% |        1248      6.33%    100.00% (Unspecified)
board.cache_hierarchy.ruby_system.L1Cache_Controller.M_W.Fwd_GETX::total        19720                       (Unspecified)
board.cache_hierarchy.ruby_system.L1Cache_Controller.M_W.Fwd_GETS |        2564      7.11%      7.11% |        7014     19.44%     26.55% |        2407      6.67%     33.22% |       24091     66.78%    100.00% (Unspecified)
board.cache_hierarchy.ruby_system.L1Cache_Controller.M_W.Fwd_GETS::total        36076                       (Unspecified)
board.cache_hierarchy.ruby_system.L1Cache_Controller.M_W.Use_Timeout |      674695     18.27%     18.27% |      606012     16.41%     34.68% |      891938     24.16%     58.84% |     1519835     41.16%    100.00% (Unspecified)
board.cache_hierarchy.ruby_system.L1Cache_Controller.M_W.Use_Timeout::total      3692480                       (Unspecified)
board.cache_hierarchy.ruby_system.L1Cache_Controller.MM.Load |   430167380     47.34%     47.34% |    92128381     10.14%     57.48% |    97846600     10.77%     68.24% |   288584291     31.76%    100.00% (Unspecified)
board.cache_hierarchy.ruby_system.L1Cache_Controller.MM.Load::total    908726652                       (Unspecified)
board.cache_hierarchy.ruby_system.L1Cache_Controller.MM.Store |   151050861     24.43%     24.43% |   106906226     17.29%     41.73% |    97303762     15.74%     57.47% |   262928176     42.53%    100.00% (Unspecified)
board.cache_hierarchy.ruby_system.L1Cache_Controller.MM.Store::total    618189025                       (Unspecified)
board.cache_hierarchy.ruby_system.L1Cache_Controller.MM.L1_Replacement |     4203464     30.29%     30.29% |     2978853     21.46%     51.75% |     2237256     16.12%     67.87% |     4459144     32.13%    100.00% (Unspecified)
board.cache_hierarchy.ruby_system.L1Cache_Controller.MM.L1_Replacement::total     13878717                       (Unspecified)
board.cache_hierarchy.ruby_system.L1Cache_Controller.MM.Fwd_GETX |       86920     27.23%     27.23% |       97421     30.52%     57.74% |       51521     16.14%     73.88% |       83392     26.12%    100.00% (Unspecified)
board.cache_hierarchy.ruby_system.L1Cache_Controller.MM.Fwd_GETX::total       319254                       (Unspecified)
board.cache_hierarchy.ruby_system.L1Cache_Controller.MM.Fwd_GETS |      195400     29.78%     29.78% |      191551     29.20%     58.98% |      100335     15.29%     74.27% |      168773     25.73%    100.00% (Unspecified)
board.cache_hierarchy.ruby_system.L1Cache_Controller.MM.Fwd_GETS::total       656059                       (Unspecified)
board.cache_hierarchy.ruby_system.L1Cache_Controller.MM.Fwd_DMA |        2777     31.70%     31.70% |        1779     20.31%     52.02% |        1631     18.62%     70.64% |        2572     29.36%    100.00% (Unspecified)
board.cache_hierarchy.ruby_system.L1Cache_Controller.MM.Fwd_DMA::total         8759                       (Unspecified)
board.cache_hierarchy.ruby_system.L1Cache_Controller.MM_W.Load |      497927     22.56%     22.56% |      515569     23.35%     45.91% |      456761     20.69%     66.60% |      737323     33.40%    100.00% (Unspecified)
board.cache_hierarchy.ruby_system.L1Cache_Controller.MM_W.Load::total      2207580                       (Unspecified)
board.cache_hierarchy.ruby_system.L1Cache_Controller.MM_W.Store |    27770945     37.40%     37.40% |    15938500     21.47%     58.87% |     9648017     12.99%     71.86% |    20894893     28.14%    100.00% (Unspecified)
board.cache_hierarchy.ruby_system.L1Cache_Controller.MM_W.Store::total     74252355                       (Unspecified)
board.cache_hierarchy.ruby_system.L1Cache_Controller.MM_W.L1_Replacement |          16    100.00%    100.00% |           0      0.00%    100.00% |           0      0.00%    100.00% |           0      0.00%    100.00% (Unspecified)
board.cache_hierarchy.ruby_system.L1Cache_Controller.MM_W.L1_Replacement::total           16                       (Unspecified)
board.cache_hierarchy.ruby_system.L1Cache_Controller.MM_W.Fwd_GETX |        4435     23.92%     23.92% |        5444     29.36%     53.28% |        3574     19.28%     72.56% |        5087     27.44%    100.00% (Unspecified)
board.cache_hierarchy.ruby_system.L1Cache_Controller.MM_W.Fwd_GETX::total        18540                       (Unspecified)
board.cache_hierarchy.ruby_system.L1Cache_Controller.MM_W.Fwd_GETS |       13623     18.76%     18.76% |       34721     47.81%     66.57% |       10942     15.07%     81.64% |       13335     18.36%    100.00% (Unspecified)
board.cache_hierarchy.ruby_system.L1Cache_Controller.MM_W.Fwd_GETS::total        72621                       (Unspecified)
board.cache_hierarchy.ruby_system.L1Cache_Controller.MM_W.Use_Timeout |     4157062     30.82%     30.82% |     3045449     22.58%     53.40% |     2081569     15.43%     68.84% |     4202574     31.16%    100.00% (Unspecified)
board.cache_hierarchy.ruby_system.L1Cache_Controller.MM_W.Use_Timeout::total     13486654                       (Unspecified)
board.cache_hierarchy.ruby_system.L1Cache_Controller.IM.Ack |      114318     27.50%     27.50% |      149414     35.94%     63.45% |       59847     14.40%     77.84% |       92099     22.16%    100.00% (Unspecified)
board.cache_hierarchy.ruby_system.L1Cache_Controller.IM.Ack::total       415678                       (Unspecified)
board.cache_hierarchy.ruby_system.L1Cache_Controller.IM.Exclusive_Data |     2748078     27.94%     27.94% |     2482914     25.25%     53.19% |     1405375     14.29%     67.48% |     3198353     32.52%    100.00% (Unspecified)
board.cache_hierarchy.ruby_system.L1Cache_Controller.IM.Exclusive_Data::total      9834720                       (Unspecified)
board.cache_hierarchy.ruby_system.L1Cache_Controller.IS.L1_Replacement |           1     25.00%     25.00% |           3     75.00%    100.00% |           0      0.00%    100.00% |           0      0.00%    100.00% (Unspecified)
board.cache_hierarchy.ruby_system.L1Cache_Controller.IS.L1_Replacement::total            4                       (Unspecified)
board.cache_hierarchy.ruby_system.L1Cache_Controller.IS.Data |     5615582     14.72%     14.72% |     6631278     17.38%     32.10% |     4795099     12.57%     44.67% |    21107371     55.33%    100.00% (Unspecified)
board.cache_hierarchy.ruby_system.L1Cache_Controller.IS.Data::total     38149330                       (Unspecified)
board.cache_hierarchy.ruby_system.L1Cache_Controller.IS.Exclusive_Data |      932947     19.82%     19.82% |      721011     15.32%     35.14% |     1140212     24.22%     59.36% |     1913217     40.64%    100.00% (Unspecified)
board.cache_hierarchy.ruby_system.L1Cache_Controller.IS.Exclusive_Data::total      4707387                       (Unspecified)
board.cache_hierarchy.ruby_system.L1Cache_Controller.SM.L1_Replacement |          23     16.20%     16.20% |          25     17.61%     33.80% |           0      0.00%     33.80% |          94     66.20%    100.00% (Unspecified)
board.cache_hierarchy.ruby_system.L1Cache_Controller.SM.L1_Replacement::total          142                       (Unspecified)
board.cache_hierarchy.ruby_system.L1Cache_Controller.SM.Fwd_GETS |          10     43.48%     43.48% |           3     13.04%     56.52% |           5     21.74%     78.26% |           5     21.74%    100.00% (Unspecified)
board.cache_hierarchy.ruby_system.L1Cache_Controller.SM.Fwd_GETS::total           23                       (Unspecified)
board.cache_hierarchy.ruby_system.L1Cache_Controller.SM.Inv |         220     21.36%     21.36% |         277     26.89%     48.25% |         256     24.85%     73.11% |         277     26.89%    100.00% (Unspecified)
board.cache_hierarchy.ruby_system.L1Cache_Controller.SM.Inv::total         1030                       (Unspecified)
board.cache_hierarchy.ruby_system.L1Cache_Controller.SM.Ack |       44701     28.13%     28.13% |       42155     26.53%     54.66% |       22938     14.44%     69.10% |       49094     30.90%    100.00% (Unspecified)
board.cache_hierarchy.ruby_system.L1Cache_Controller.SM.Ack::total       158888                       (Unspecified)
board.cache_hierarchy.ruby_system.L1Cache_Controller.SM.Exclusive_Data |     1148433     43.73%     43.73% |      443826     16.90%     60.63% |      424945     16.18%     76.81% |      608945     23.19%    100.00% (Unspecified)
board.cache_hierarchy.ruby_system.L1Cache_Controller.SM.Exclusive_Data::total      2626149                       (Unspecified)
board.cache_hierarchy.ruby_system.L1Cache_Controller.OM.L1_Replacement |           0      0.00%      0.00% |           1    100.00%    100.00% |           0      0.00%    100.00% |           0      0.00%    100.00% (Unspecified)
board.cache_hierarchy.ruby_system.L1Cache_Controller.OM.L1_Replacement::total            1                       (Unspecified)
board.cache_hierarchy.ruby_system.L1Cache_Controller.OM.Own_GETX |        2299     21.13%     21.13% |        3710     34.11%     55.24% |        2975     27.35%     82.59% |        1894     17.41%    100.00% (Unspecified)
board.cache_hierarchy.ruby_system.L1Cache_Controller.OM.Own_GETX::total        10878                       (Unspecified)
board.cache_hierarchy.ruby_system.L1Cache_Controller.OM.Fwd_GETX |          20     26.32%     26.32% |          26     34.21%     60.53% |          18     23.68%     84.21% |          12     15.79%    100.00% (Unspecified)
board.cache_hierarchy.ruby_system.L1Cache_Controller.OM.Fwd_GETX::total           76                       (Unspecified)
board.cache_hierarchy.ruby_system.L1Cache_Controller.OM.Fwd_GETS |           6     17.65%     17.65% |          16     47.06%     64.71% |           1      2.94%     67.65% |          11     32.35%    100.00% (Unspecified)
board.cache_hierarchy.ruby_system.L1Cache_Controller.OM.Fwd_GETS::total           34                       (Unspecified)
board.cache_hierarchy.ruby_system.L1Cache_Controller.OM.Ack |      125336     66.01%     66.01% |       16272      8.57%     74.58% |       29965     15.78%     90.36% |       18312      9.64%    100.00% (Unspecified)
board.cache_hierarchy.ruby_system.L1Cache_Controller.OM.Ack::total       189885                       (Unspecified)
board.cache_hierarchy.ruby_system.L1Cache_Controller.OM.All_acks |     3898810     31.26%     31.26% |     2930450     23.50%     54.76% |     1833295     14.70%     69.46% |     3809192     30.54%    100.00% (Unspecified)
board.cache_hierarchy.ruby_system.L1Cache_Controller.OM.All_acks::total     12471747                       (Unspecified)
board.cache_hierarchy.ruby_system.L1Cache_Controller.SI.Load |        5655     29.22%     29.22% |         816      4.22%     33.44% |        7115     36.77%     70.21% |        5765     29.79%    100.00% (Unspecified)
board.cache_hierarchy.ruby_system.L1Cache_Controller.SI.Load::total        19351                       (Unspecified)
board.cache_hierarchy.ruby_system.L1Cache_Controller.SI.Ifetch |        5205     29.03%     29.03% |         818      4.56%     33.60% |        6403     35.72%     69.31% |        5502     30.69%    100.00% (Unspecified)
board.cache_hierarchy.ruby_system.L1Cache_Controller.SI.Ifetch::total        17928                       (Unspecified)
board.cache_hierarchy.ruby_system.L1Cache_Controller.SI.Store |          35     83.33%     83.33% |           0      0.00%     83.33% |           7     16.67%    100.00% |           0      0.00%    100.00% (Unspecified)
board.cache_hierarchy.ruby_system.L1Cache_Controller.SI.Store::total           42                       (Unspecified)
board.cache_hierarchy.ruby_system.L1Cache_Controller.SI.Fwd_GETS |           3     37.50%     37.50% |           1     12.50%     50.00% |           1     12.50%     62.50% |           3     37.50%    100.00% (Unspecified)
board.cache_hierarchy.ruby_system.L1Cache_Controller.SI.Fwd_GETS::total            8                       (Unspecified)
board.cache_hierarchy.ruby_system.L1Cache_Controller.SI.Inv |           0      0.00%      0.00% |           3     27.27%     27.27% |           6     54.55%     81.82% |           2     18.18%    100.00% (Unspecified)
board.cache_hierarchy.ruby_system.L1Cache_Controller.SI.Inv::total           11                       (Unspecified)
board.cache_hierarchy.ruby_system.L1Cache_Controller.SI.Writeback_Ack |     2757081     11.80%     11.80% |     1963943      8.40%     20.20% |     2510231     10.74%     30.94% |    16140165     69.06%    100.00% (Unspecified)
board.cache_hierarchy.ruby_system.L1Cache_Controller.SI.Writeback_Ack::total     23371420                       (Unspecified)
board.cache_hierarchy.ruby_system.L1Cache_Controller.SI.Writeback_Ack_Data |     1683387     14.10%     14.10% |     4191117     35.12%     49.22% |     1782677     14.94%     64.16% |     4277544     35.84%    100.00% (Unspecified)
board.cache_hierarchy.ruby_system.L1Cache_Controller.SI.Writeback_Ack_Data::total     11934725                       (Unspecified)
board.cache_hierarchy.ruby_system.L1Cache_Controller.OI.Load |           3    100.00%    100.00% |           0      0.00%    100.00% |           0      0.00%    100.00% |           0      0.00%    100.00% (Unspecified)
board.cache_hierarchy.ruby_system.L1Cache_Controller.OI.Load::total            3                       (Unspecified)
board.cache_hierarchy.ruby_system.L1Cache_Controller.OI.Writeback_Ack_Data |        5889     24.73%     24.73% |        6300     26.46%     51.19% |        5825     24.46%     75.65% |        5797     24.35%    100.00% (Unspecified)
board.cache_hierarchy.ruby_system.L1Cache_Controller.OI.Writeback_Ack_Data::total        23811                       (Unspecified)
board.cache_hierarchy.ruby_system.L1Cache_Controller.MI.Load |         123     28.94%     28.94% |          44     10.35%     39.29% |          97     22.82%     62.12% |         161     37.88%    100.00% (Unspecified)
board.cache_hierarchy.ruby_system.L1Cache_Controller.MI.Load::total          425                       (Unspecified)
board.cache_hierarchy.ruby_system.L1Cache_Controller.MI.Ifetch |         122    100.00%    100.00% |           0      0.00%    100.00% |           0      0.00%    100.00% |           0      0.00%    100.00% (Unspecified)
board.cache_hierarchy.ruby_system.L1Cache_Controller.MI.Ifetch::total          122                       (Unspecified)
board.cache_hierarchy.ruby_system.L1Cache_Controller.MI.Store |          23     16.67%     16.67% |          22     15.94%     32.61% |          31     22.46%     55.07% |          62     44.93%    100.00% (Unspecified)
board.cache_hierarchy.ruby_system.L1Cache_Controller.MI.Store::total          138                       (Unspecified)
board.cache_hierarchy.ruby_system.L1Cache_Controller.MI.Fwd_GETX |           0      0.00%      0.00% |           1     50.00%     50.00% |           0      0.00%     50.00% |           1     50.00%    100.00% (Unspecified)
board.cache_hierarchy.ruby_system.L1Cache_Controller.MI.Fwd_GETX::total            2                       (Unspecified)
board.cache_hierarchy.ruby_system.L1Cache_Controller.MI.Fwd_GETS |           0      0.00%      0.00% |           0      0.00%      0.00% |           1    100.00%    100.00% |           0      0.00%    100.00% (Unspecified)
board.cache_hierarchy.ruby_system.L1Cache_Controller.MI.Fwd_GETS::total            1                       (Unspecified)
board.cache_hierarchy.ruby_system.L1Cache_Controller.MI.Writeback_Ack_Data |     4503872     28.27%     28.27% |     3229979     20.28%     48.55% |     2776568     17.43%     65.98% |     5419476     34.02%    100.00% (Unspecified)
board.cache_hierarchy.ruby_system.L1Cache_Controller.MI.Writeback_Ack_Data::total     15929895                       (Unspecified)
board.cache_hierarchy.ruby_system.L1Cache_Controller.II.Writeback_Ack_Data |           0      0.00%      0.00% |           1     50.00%     50.00% |           0      0.00%     50.00% |           1     50.00%    100.00% (Unspecified)
board.cache_hierarchy.ruby_system.L1Cache_Controller.II.Writeback_Ack_Data::total            2                       (Unspecified)
board.cache_hierarchy.ruby_system.L1Cache_Controller.II.Writeback_Nack |           0      0.00%      0.00% |           3     27.27%     27.27% |           6     54.55%     81.82% |           2     18.18%    100.00% (Unspecified)
board.cache_hierarchy.ruby_system.L1Cache_Controller.II.Writeback_Nack::total           11                       (Unspecified)
board.cache_hierarchy.ruby_system.L2Cache_Controller.L1_GETS     42890194      0.00%      0.00% (Unspecified)
board.cache_hierarchy.ruby_system.L2Cache_Controller.L1_GETX     12475874      0.00%      0.00% (Unspecified)
board.cache_hierarchy.ruby_system.L2Cache_Controller.L1_PUTO        23810      0.00%      0.00% (Unspecified)
board.cache_hierarchy.ruby_system.L2Cache_Controller.L1_PUTX     15929901      0.00%      0.00% (Unspecified)
board.cache_hierarchy.ruby_system.L2Cache_Controller.L1_PUTS_only     28784518      0.00%      0.00% (Unspecified)
board.cache_hierarchy.ruby_system.L2Cache_Controller.L1_PUTS      6521987      0.00%      0.00% (Unspecified)
board.cache_hierarchy.ruby_system.L2Cache_Controller.Fwd_GETX        29072      0.00%      0.00% (Unspecified)
board.cache_hierarchy.ruby_system.L2Cache_Controller.Fwd_DMA         9579      0.00%      0.00% (Unspecified)
board.cache_hierarchy.ruby_system.L2Cache_Controller.Inv       126430      0.00%      0.00% (Unspecified)
board.cache_hierarchy.ruby_system.L2Cache_Controller.IntAck         1352      0.00%      0.00% (Unspecified)
board.cache_hierarchy.ruby_system.L2Cache_Controller.All_Acks      9772315      0.00%      0.00% (Unspecified)
board.cache_hierarchy.ruby_system.L2Cache_Controller.Data     22754406      0.00%      0.00% (Unspecified)
board.cache_hierarchy.ruby_system.L2Cache_Controller.Data_Exclusive         5451      0.00%      0.00% (Unspecified)
board.cache_hierarchy.ruby_system.L2Cache_Controller.L1_WBCLEANDATA     11934725      0.00%      0.00% (Unspecified)
board.cache_hierarchy.ruby_system.L2Cache_Controller.L1_WBDIRTYDATA     15953706      0.00%      0.00% (Unspecified)
board.cache_hierarchy.ruby_system.L2Cache_Controller.Writeback_Ack      9731420      0.00%      0.00% (Unspecified)
board.cache_hierarchy.ruby_system.L2Cache_Controller.Unblock     61520752      0.00%      0.00% (Unspecified)
board.cache_hierarchy.ruby_system.L2Cache_Controller.Exclusive_Unblock     17179134      0.00%      0.00% (Unspecified)
board.cache_hierarchy.ruby_system.L2Cache_Controller.DmaAck         8884      0.00%      0.00% (Unspecified)
board.cache_hierarchy.ruby_system.L2Cache_Controller.L2_Replacement     21449522      0.00%      0.00% (Unspecified)
board.cache_hierarchy.ruby_system.L2Cache_Controller.I.L1_GETS     12983387      0.00%      0.00% (Unspecified)
board.cache_hierarchy.ruby_system.L2Cache_Controller.I.L1_GETX      7185354      0.00%      0.00% (Unspecified)
board.cache_hierarchy.ruby_system.L2Cache_Controller.I.Inv       122323      0.00%      0.00% (Unspecified)
board.cache_hierarchy.ruby_system.L2Cache_Controller.ILS.L1_GETS       964896      0.00%      0.00% (Unspecified)
board.cache_hierarchy.ruby_system.L2Cache_Controller.ILS.L1_GETX      2382242      0.00%      0.00% (Unspecified)
board.cache_hierarchy.ruby_system.L2Cache_Controller.ILS.L1_PUTS_only     10826359      0.00%      0.00% (Unspecified)
board.cache_hierarchy.ruby_system.L2Cache_Controller.ILS.L1_PUTS      1108366      0.00%      0.00% (Unspecified)
board.cache_hierarchy.ruby_system.L2Cache_Controller.ILS.Inv          927      0.00%      0.00% (Unspecified)
board.cache_hierarchy.ruby_system.L2Cache_Controller.ILX.L1_GETS       872097      0.00%      0.00% (Unspecified)
board.cache_hierarchy.ruby_system.L2Cache_Controller.ILX.L1_GETX       367651      0.00%      0.00% (Unspecified)
board.cache_hierarchy.ruby_system.L2Cache_Controller.ILX.L1_PUTX     15929897      0.00%      0.00% (Unspecified)
board.cache_hierarchy.ruby_system.L2Cache_Controller.ILX.L1_PUTS           11      0.00%      0.00% (Unspecified)
board.cache_hierarchy.ruby_system.L2Cache_Controller.ILX.Fwd_GETX         5115      0.00%      0.00% (Unspecified)
board.cache_hierarchy.ruby_system.L2Cache_Controller.ILX.Fwd_DMA         8883      0.00%      0.00% (Unspecified)
board.cache_hierarchy.ruby_system.L2Cache_Controller.ILOX.L1_GETS        16639      0.00%      0.00% (Unspecified)
board.cache_hierarchy.ruby_system.L2Cache_Controller.ILOX.L1_GETX         1926      0.00%      0.00% (Unspecified)
board.cache_hierarchy.ruby_system.L2Cache_Controller.ILOX.L1_PUTO         7258      0.00%      0.00% (Unspecified)
board.cache_hierarchy.ruby_system.L2Cache_Controller.ILOX.Fwd_GETX          226      0.00%      0.00% (Unspecified)
board.cache_hierarchy.ruby_system.L2Cache_Controller.ILOX.Fwd_DMA            1      0.00%      0.00% (Unspecified)
board.cache_hierarchy.ruby_system.L2Cache_Controller.ILOSX.L1_GETS       131985      0.00%      0.00% (Unspecified)
board.cache_hierarchy.ruby_system.L2Cache_Controller.ILOSX.L1_GETX       189948      0.00%      0.00% (Unspecified)
board.cache_hierarchy.ruby_system.L2Cache_Controller.ILOSX.L1_PUTO        16552      0.00%      0.00% (Unspecified)
board.cache_hierarchy.ruby_system.L2Cache_Controller.ILOSX.L1_PUTX            1      0.00%      0.00% (Unspecified)
board.cache_hierarchy.ruby_system.L2Cache_Controller.ILOSX.L1_PUTS_only        26056      0.00%      0.00% (Unspecified)
board.cache_hierarchy.ruby_system.L2Cache_Controller.ILOSX.L1_PUTS        13301      0.00%      0.00% (Unspecified)
board.cache_hierarchy.ruby_system.L2Cache_Controller.ILOSX.Fwd_GETX          110      0.00%      0.00% (Unspecified)
board.cache_hierarchy.ruby_system.L2Cache_Controller.S.L1_GETS     18269628      0.00%      0.00% (Unspecified)
board.cache_hierarchy.ruby_system.L2Cache_Controller.S.L1_GETX        88595      0.00%      0.00% (Unspecified)
board.cache_hierarchy.ruby_system.L2Cache_Controller.S.Inv         3014      0.00%      0.00% (Unspecified)
board.cache_hierarchy.ruby_system.L2Cache_Controller.S.L2_Replacement     10382682      0.00%      0.00% (Unspecified)
board.cache_hierarchy.ruby_system.L2Cache_Controller.OLSX.L1_GETS        23052      0.00%      0.00% (Unspecified)
board.cache_hierarchy.ruby_system.L2Cache_Controller.OLSX.L1_GETX         4879      0.00%      0.00% (Unspecified)
board.cache_hierarchy.ruby_system.L2Cache_Controller.OLSX.L1_PUTS_only         7938      0.00%      0.00% (Unspecified)
board.cache_hierarchy.ruby_system.L2Cache_Controller.OLSX.L1_PUTS        18920      0.00%      0.00% (Unspecified)
board.cache_hierarchy.ruby_system.L2Cache_Controller.OLSX.Fwd_GETX           92      0.00%      0.00% (Unspecified)
board.cache_hierarchy.ruby_system.L2Cache_Controller.OLSX.L2_Replacement         3591      0.00%      0.00% (Unspecified)
board.cache_hierarchy.ruby_system.L2Cache_Controller.SLS.L1_GETS      5543706      0.00%      0.00% (Unspecified)
board.cache_hierarchy.ruby_system.L2Cache_Controller.SLS.L1_GETX       114829      0.00%      0.00% (Unspecified)
board.cache_hierarchy.ruby_system.L2Cache_Controller.SLS.L1_PUTS_only     17924123      0.00%      0.00% (Unspecified)
board.cache_hierarchy.ruby_system.L2Cache_Controller.SLS.L1_PUTS      5381083      0.00%      0.00% (Unspecified)
board.cache_hierarchy.ruby_system.L2Cache_Controller.SLS.Inv          166      0.00%      0.00% (Unspecified)
board.cache_hierarchy.ruby_system.L2Cache_Controller.SLS.L2_Replacement      1335402      0.00%      0.00% (Unspecified)
board.cache_hierarchy.ruby_system.L2Cache_Controller.M.L1_GETS      4051328      0.00%      0.00% (Unspecified)
board.cache_hierarchy.ruby_system.L2Cache_Controller.M.L1_GETX      2136323      0.00%      0.00% (Unspecified)
board.cache_hierarchy.ruby_system.L2Cache_Controller.M.Fwd_GETX        23529      0.00%      0.00% (Unspecified)
board.cache_hierarchy.ruby_system.L2Cache_Controller.M.Fwd_DMA          695      0.00%      0.00% (Unspecified)
board.cache_hierarchy.ruby_system.L2Cache_Controller.M.L2_Replacement      9727829      0.00%      0.00% (Unspecified)
board.cache_hierarchy.ruby_system.L2Cache_Controller.IFGX.Data_Exclusive         5341      0.00%      0.00% (Unspecified)
board.cache_hierarchy.ruby_system.L2Cache_Controller.IFGXX.IntAck           91      0.00%      0.00% (Unspecified)
board.cache_hierarchy.ruby_system.L2Cache_Controller.IFGXX.Data_Exclusive          110      0.00%      0.00% (Unspecified)
board.cache_hierarchy.ruby_system.L2Cache_Controller.IFGXXD.IntAck           19      0.00%      0.00% (Unspecified)
board.cache_hierarchy.ruby_system.L2Cache_Controller.IFGXXD.All_Acks          110      0.00%      0.00% (Unspecified)
board.cache_hierarchy.ruby_system.L2Cache_Controller.OLSF.IntAck           94      0.00%      0.00% (Unspecified)
board.cache_hierarchy.ruby_system.L2Cache_Controller.OLSF.All_Acks           92      0.00%      0.00% (Unspecified)
board.cache_hierarchy.ruby_system.L2Cache_Controller.ILOXW.L1_WBDIRTYDATA         7258      0.00%      0.00% (Unspecified)
board.cache_hierarchy.ruby_system.L2Cache_Controller.ILOXW.Unblock        26056      0.00%      0.00% (Unspecified)
board.cache_hierarchy.ruby_system.L2Cache_Controller.ILOSXW.L1_PUTS            1      0.00%      0.00% (Unspecified)
board.cache_hierarchy.ruby_system.L2Cache_Controller.ILOSXW.L1_WBDIRTYDATA        16553      0.00%      0.00% (Unspecified)
board.cache_hierarchy.ruby_system.L2Cache_Controller.ILOSXW.Unblock        13301      0.00%      0.00% (Unspecified)
board.cache_hierarchy.ruby_system.L2Cache_Controller.ILSW.L1_GETS            1      0.00%      0.00% (Unspecified)
board.cache_hierarchy.ruby_system.L2Cache_Controller.ILSW.L1_PUTS          105      0.00%      0.00% (Unspecified)
board.cache_hierarchy.ruby_system.L2Cache_Controller.ILSW.L1_WBCLEANDATA      1108366      0.00%      0.00% (Unspecified)
board.cache_hierarchy.ruby_system.L2Cache_Controller.IW.L1_GETS            7      0.00%      0.00% (Unspecified)
board.cache_hierarchy.ruby_system.L2Cache_Controller.IW.L1_WBCLEANDATA     10826359      0.00%      0.00% (Unspecified)
board.cache_hierarchy.ruby_system.L2Cache_Controller.ILXW.L1_GETS            3      0.00%      0.00% (Unspecified)
board.cache_hierarchy.ruby_system.L2Cache_Controller.ILXW.L1_GETX            2      0.00%      0.00% (Unspecified)
board.cache_hierarchy.ruby_system.L2Cache_Controller.ILXW.L1_WBDIRTYDATA     15929895      0.00%      0.00% (Unspecified)
board.cache_hierarchy.ruby_system.L2Cache_Controller.ILXW.Unblock            2      0.00%      0.00% (Unspecified)
board.cache_hierarchy.ruby_system.L2Cache_Controller.SLSW.L1_GETS           59      0.00%      0.00% (Unspecified)
board.cache_hierarchy.ruby_system.L2Cache_Controller.SLSW.L1_PUTS          127      0.00%      0.00% (Unspecified)
board.cache_hierarchy.ruby_system.L2Cache_Controller.SLSW.Unblock      5381082      0.00%      0.00% (Unspecified)
board.cache_hierarchy.ruby_system.L2Cache_Controller.SLSW.L2_Replacement            5      0.00%      0.00% (Unspecified)
board.cache_hierarchy.ruby_system.L2Cache_Controller.SW.L1_GETS           36      0.00%      0.00% (Unspecified)
board.cache_hierarchy.ruby_system.L2Cache_Controller.SW.Unblock     17924123      0.00%      0.00% (Unspecified)
board.cache_hierarchy.ruby_system.L2Cache_Controller.SW.L2_Replacement           13      0.00%      0.00% (Unspecified)
board.cache_hierarchy.ruby_system.L2Cache_Controller.OXW.Unblock         7938      0.00%      0.00% (Unspecified)
board.cache_hierarchy.ruby_system.L2Cache_Controller.OLSXW.L1_PUTS            1      0.00%      0.00% (Unspecified)
board.cache_hierarchy.ruby_system.L2Cache_Controller.OLSXW.Unblock        18920      0.00%      0.00% (Unspecified)
board.cache_hierarchy.ruby_system.L2Cache_Controller.IFLS.L1_GETS          962      0.00%      0.00% (Unspecified)
board.cache_hierarchy.ruby_system.L2Cache_Controller.IFLS.L1_GETX           29      0.00%      0.00% (Unspecified)
board.cache_hierarchy.ruby_system.L2Cache_Controller.IFLS.L1_PUTS_only            8      0.00%      0.00% (Unspecified)
board.cache_hierarchy.ruby_system.L2Cache_Controller.IFLS.L1_PUTS            5      0.00%      0.00% (Unspecified)
board.cache_hierarchy.ruby_system.L2Cache_Controller.IFLS.Unblock       964896      0.00%      0.00% (Unspecified)
board.cache_hierarchy.ruby_system.L2Cache_Controller.IFLOX.L1_GETS            1      0.00%      0.00% (Unspecified)
board.cache_hierarchy.ruby_system.L2Cache_Controller.IFLOX.L1_GETX            1      0.00%      0.00% (Unspecified)
board.cache_hierarchy.ruby_system.L2Cache_Controller.IFLOX.L1_PUTS            1      0.00%      0.00% (Unspecified)
board.cache_hierarchy.ruby_system.L2Cache_Controller.IFLOX.Unblock        16639      0.00%      0.00% (Unspecified)
board.cache_hierarchy.ruby_system.L2Cache_Controller.IFLOX.Exclusive_Unblock         4879      0.00%      0.00% (Unspecified)
board.cache_hierarchy.ruby_system.L2Cache_Controller.IFLOXX.L1_GETS        18437      0.00%      0.00% (Unspecified)
board.cache_hierarchy.ruby_system.L2Cache_Controller.IFLOXX.L1_GETX         2239      0.00%      0.00% (Unspecified)
board.cache_hierarchy.ruby_system.L2Cache_Controller.IFLOXX.L1_PUTX            3      0.00%      0.00% (Unspecified)
board.cache_hierarchy.ruby_system.L2Cache_Controller.IFLOXX.Unblock       216038      0.00%      0.00% (Unspecified)
board.cache_hierarchy.ruby_system.L2Cache_Controller.IFLOXX.Exclusive_Unblock      1025636      0.00%      0.00% (Unspecified)
board.cache_hierarchy.ruby_system.L2Cache_Controller.IFLOSX.L1_GETS           17      0.00%      0.00% (Unspecified)
board.cache_hierarchy.ruby_system.L2Cache_Controller.IFLOSX.L1_GETX           67      0.00%      0.00% (Unspecified)
board.cache_hierarchy.ruby_system.L2Cache_Controller.IFLOSX.Unblock       131985      0.00%      0.00% (Unspecified)
board.cache_hierarchy.ruby_system.L2Cache_Controller.IFLXO.L1_GETS         2474      0.00%      0.00% (Unspecified)
board.cache_hierarchy.ruby_system.L2Cache_Controller.IFLXO.L1_GETX          261      0.00%      0.00% (Unspecified)
board.cache_hierarchy.ruby_system.L2Cache_Controller.IFLXO.Exclusive_Unblock       189948      0.00%      0.00% (Unspecified)
board.cache_hierarchy.ruby_system.L2Cache_Controller.IGS.L1_GETS        10719      0.00%      0.00% (Unspecified)
board.cache_hierarchy.ruby_system.L2Cache_Controller.IGS.L1_GETX            8      0.00%      0.00% (Unspecified)
board.cache_hierarchy.ruby_system.L2Cache_Controller.IGS.Data     12983386      0.00%      0.00% (Unspecified)
board.cache_hierarchy.ruby_system.L2Cache_Controller.IGS.Unblock     12983386      0.00%      0.00% (Unspecified)
board.cache_hierarchy.ruby_system.L2Cache_Controller.IGM.L1_GETS            6      0.00%      0.00% (Unspecified)
board.cache_hierarchy.ruby_system.L2Cache_Controller.IGM.L1_GETX          557      0.00%      0.00% (Unspecified)
board.cache_hierarchy.ruby_system.L2Cache_Controller.IGM.Data      7273949      0.00%      0.00% (Unspecified)
board.cache_hierarchy.ruby_system.L2Cache_Controller.IGMLS.L1_GETS          127      0.00%      0.00% (Unspecified)
board.cache_hierarchy.ruby_system.L2Cache_Controller.IGMLS.L1_GETX          937      0.00%      0.00% (Unspecified)
board.cache_hierarchy.ruby_system.L2Cache_Controller.IGMLS.L1_PUTS_only            4      0.00%      0.00% (Unspecified)
board.cache_hierarchy.ruby_system.L2Cache_Controller.IGMLS.L1_PUTS            6      0.00%      0.00% (Unspecified)
board.cache_hierarchy.ruby_system.L2Cache_Controller.IGMLS.Data      2497071      0.00%      0.00% (Unspecified)
board.cache_hierarchy.ruby_system.L2Cache_Controller.IGMO.All_Acks      9771020      0.00%      0.00% (Unspecified)
board.cache_hierarchy.ruby_system.L2Cache_Controller.IGMOU.L1_GETS           12      0.00%      0.00% (Unspecified)
board.cache_hierarchy.ruby_system.L2Cache_Controller.IGMOU.L1_GETX           14      0.00%      0.00% (Unspecified)
board.cache_hierarchy.ruby_system.L2Cache_Controller.IGMOU.Exclusive_Unblock      9771020      0.00%      0.00% (Unspecified)
board.cache_hierarchy.ruby_system.L2Cache_Controller.II.IntAck         1148      0.00%      0.00% (Unspecified)
board.cache_hierarchy.ruby_system.L2Cache_Controller.II.All_Acks         1093      0.00%      0.00% (Unspecified)
board.cache_hierarchy.ruby_system.L2Cache_Controller.MM.L1_GETS            1      0.00%      0.00% (Unspecified)
board.cache_hierarchy.ruby_system.L2Cache_Controller.MM.L1_GETX            3      0.00%      0.00% (Unspecified)
board.cache_hierarchy.ruby_system.L2Cache_Controller.MM.Exclusive_Unblock      2136323      0.00%      0.00% (Unspecified)
board.cache_hierarchy.ruby_system.L2Cache_Controller.SS.L1_GETS          413      0.00%      0.00% (Unspecified)
board.cache_hierarchy.ruby_system.L2Cache_Controller.SS.Unblock     18269628      0.00%      0.00% (Unspecified)
board.cache_hierarchy.ruby_system.L2Cache_Controller.OO.L1_GETS            9      0.00%      0.00% (Unspecified)
board.cache_hierarchy.ruby_system.L2Cache_Controller.OO.L1_GETX            1      0.00%      0.00% (Unspecified)
board.cache_hierarchy.ruby_system.L2Cache_Controller.OO.Exclusive_Unblock      4051328      0.00%      0.00% (Unspecified)
board.cache_hierarchy.ruby_system.L2Cache_Controller.OLSXS.L1_GETX            1      0.00%      0.00% (Unspecified)
board.cache_hierarchy.ruby_system.L2Cache_Controller.OLSXS.L1_PUTS            1      0.00%      0.00% (Unspecified)
board.cache_hierarchy.ruby_system.L2Cache_Controller.OLSXS.Unblock        23052      0.00%      0.00% (Unspecified)
board.cache_hierarchy.ruby_system.L2Cache_Controller.SLSS.L1_GETS          170      0.00%      0.00% (Unspecified)
board.cache_hierarchy.ruby_system.L2Cache_Controller.SLSS.L1_GETX            1      0.00%      0.00% (Unspecified)
board.cache_hierarchy.ruby_system.L2Cache_Controller.SLSS.L1_PUTS_only           30      0.00%      0.00% (Unspecified)
board.cache_hierarchy.ruby_system.L2Cache_Controller.SLSS.L1_PUTS           59      0.00%      0.00% (Unspecified)
board.cache_hierarchy.ruby_system.L2Cache_Controller.SLSS.Unblock      5543706      0.00%      0.00% (Unspecified)
board.cache_hierarchy.ruby_system.L2Cache_Controller.MI.L1_GETS           22      0.00%      0.00% (Unspecified)
board.cache_hierarchy.ruby_system.L2Cache_Controller.MI.L1_GETX            6      0.00%      0.00% (Unspecified)
board.cache_hierarchy.ruby_system.L2Cache_Controller.MI.Writeback_Ack      9727829      0.00%      0.00% (Unspecified)
board.cache_hierarchy.ruby_system.L2Cache_Controller.OLSI.Writeback_Ack         3591      0.00%      0.00% (Unspecified)
board.cache_hierarchy.ruby_system.L2Cache_Controller.ILXD.DmaAck         8883      0.00%      0.00% (Unspecified)
board.cache_hierarchy.ruby_system.L2Cache_Controller.ILOXD.DmaAck            1      0.00%      0.00% (Unspecified)
board.cache_hierarchy.ruby_system.RequestType.LD.latency_hist_seqr::bucket_size          256                       (Unspecified)
board.cache_hierarchy.ruby_system.RequestType.LD.latency_hist_seqr::max_bucket         2559                       (Unspecified)
board.cache_hierarchy.ruby_system.RequestType.LD.latency_hist_seqr::samples   1417772366                       (Unspecified)
board.cache_hierarchy.ruby_system.RequestType.LD.latency_hist_seqr::mean     2.688689                       (Unspecified)
board.cache_hierarchy.ruby_system.RequestType.LD.latency_hist_seqr::gmean     1.062655                       (Unspecified)
board.cache_hierarchy.ruby_system.RequestType.LD.latency_hist_seqr::stdev    21.258445                       (Unspecified)
board.cache_hierarchy.ruby_system.RequestType.LD.latency_hist_seqr |  1416492876     99.91%     99.91% |      894791      0.06%     99.97% |      268001      0.02%     99.99% |       94811      0.01%    100.00% |       14330      0.00%    100.00% |        5297      0.00%    100.00% |        2249      0.00%    100.00% |           7      0.00%    100.00% |           3      0.00%    100.00% |           1      0.00%    100.00% (Unspecified)
board.cache_hierarchy.ruby_system.RequestType.LD.latency_hist_seqr::total   1417772366                       (Unspecified)
board.cache_hierarchy.ruby_system.RequestType.LD.hit_latency_hist_seqr::bucket_size            1                       (Unspecified)
board.cache_hierarchy.ruby_system.RequestType.LD.hit_latency_hist_seqr::max_bucket            9                       (Unspecified)
board.cache_hierarchy.ruby_system.RequestType.LD.hit_latency_hist_seqr::samples   1395236196                       (Unspecified)
board.cache_hierarchy.ruby_system.RequestType.LD.hit_latency_hist_seqr::mean     1.000624                       (Unspecified)
board.cache_hierarchy.ruby_system.RequestType.LD.hit_latency_hist_seqr::gmean     1.000433                       (Unspecified)
board.cache_hierarchy.ruby_system.RequestType.LD.hit_latency_hist_seqr::stdev     0.024974                       (Unspecified)
board.cache_hierarchy.ruby_system.RequestType.LD.hit_latency_hist_seqr |           0      0.00%      0.00% |  1394365880     99.94%     99.94% |      870173      0.06%    100.00% |         143      0.00%    100.00% |           0      0.00%    100.00% |           0      0.00%    100.00% |           0      0.00%    100.00% |           0      0.00%    100.00% |           0      0.00%    100.00% |           0      0.00%    100.00% (Unspecified)
board.cache_hierarchy.ruby_system.RequestType.LD.hit_latency_hist_seqr::total   1395236196                       (Unspecified)
board.cache_hierarchy.ruby_system.RequestType.LD.miss_latency_hist_seqr::bucket_size          256                       (Unspecified)
board.cache_hierarchy.ruby_system.RequestType.LD.miss_latency_hist_seqr::max_bucket         2559                       (Unspecified)
board.cache_hierarchy.ruby_system.RequestType.LD.miss_latency_hist_seqr::samples     22536170                       (Unspecified)
board.cache_hierarchy.ruby_system.RequestType.LD.miss_latency_hist_seqr::mean   107.198461                       (Unspecified)
board.cache_hierarchy.ruby_system.RequestType.LD.miss_latency_hist_seqr::gmean    44.538176                       (Unspecified)
board.cache_hierarchy.ruby_system.RequestType.LD.miss_latency_hist_seqr::stdev   131.651317                       (Unspecified)
board.cache_hierarchy.ruby_system.RequestType.LD.miss_latency_hist_seqr |    21256680     94.32%     94.32% |      894791      3.97%     98.29% |      268001      1.19%     99.48% |       94811      0.42%     99.90% |       14330      0.06%     99.97% |        5297      0.02%     99.99% |        2249      0.01%    100.00% |           7      0.00%    100.00% |           3      0.00%    100.00% |           1      0.00%    100.00% (Unspecified)
board.cache_hierarchy.ruby_system.RequestType.LD.miss_latency_hist_seqr::total     22536170                       (Unspecified)
board.cache_hierarchy.ruby_system.RequestType.ST.latency_hist_seqr::bucket_size          256                       (Unspecified)
board.cache_hierarchy.ruby_system.RequestType.ST.latency_hist_seqr::max_bucket         2559                       (Unspecified)
board.cache_hierarchy.ruby_system.RequestType.ST.latency_hist_seqr::samples    666818707                       (Unspecified)
board.cache_hierarchy.ruby_system.RequestType.ST.latency_hist_seqr::mean     3.264627                       (Unspecified)
board.cache_hierarchy.ruby_system.RequestType.ST.latency_hist_seqr::gmean     1.086759                       (Unspecified)
board.cache_hierarchy.ruby_system.RequestType.ST.latency_hist_seqr::stdev    22.783129                       (Unspecified)
board.cache_hierarchy.ruby_system.RequestType.ST.latency_hist_seqr |   666073011     99.89%     99.89% |      602498      0.09%     99.98% |       66005      0.01%     99.99% |       66988      0.01%    100.00% |        6995      0.00%    100.00% |        2978      0.00%    100.00% |         222      0.00%    100.00% |           8      0.00%    100.00% |           2      0.00%    100.00% |           0      0.00%    100.00% (Unspecified)
board.cache_hierarchy.ruby_system.RequestType.ST.latency_hist_seqr::total    666818707                       (Unspecified)
board.cache_hierarchy.ruby_system.RequestType.ST.hit_latency_hist_seqr::bucket_size           32                       (Unspecified)
board.cache_hierarchy.ruby_system.RequestType.ST.hit_latency_hist_seqr::max_bucket          319                       (Unspecified)
board.cache_hierarchy.ruby_system.RequestType.ST.hit_latency_hist_seqr::samples    656415283                       (Unspecified)
board.cache_hierarchy.ruby_system.RequestType.ST.hit_latency_hist_seqr::mean     1.016711                       (Unspecified)
board.cache_hierarchy.ruby_system.RequestType.ST.hit_latency_hist_seqr::gmean     1.011528                       (Unspecified)
board.cache_hierarchy.ruby_system.RequestType.ST.hit_latency_hist_seqr::stdev     0.149107                       (Unspecified)
board.cache_hierarchy.ruby_system.RequestType.ST.hit_latency_hist_seqr |   656414779    100.00%    100.00% |         409      0.00%    100.00% |          12      0.00%    100.00% |          44      0.00%    100.00% |           4      0.00%    100.00% |          35      0.00%    100.00% |           0      0.00%    100.00% |           0      0.00%    100.00% |           0      0.00%    100.00% |           0      0.00%    100.00% (Unspecified)
board.cache_hierarchy.ruby_system.RequestType.ST.hit_latency_hist_seqr::total    656415283                       (Unspecified)
board.cache_hierarchy.ruby_system.RequestType.ST.miss_latency_hist_seqr::bucket_size          256                       (Unspecified)
board.cache_hierarchy.ruby_system.RequestType.ST.miss_latency_hist_seqr::max_bucket         2559                       (Unspecified)
board.cache_hierarchy.ruby_system.RequestType.ST.miss_latency_hist_seqr::samples     10403424                       (Unspecified)
board.cache_hierarchy.ruby_system.RequestType.ST.miss_latency_hist_seqr::mean   145.099306                       (Unspecified)
board.cache_hierarchy.ruby_system.RequestType.ST.miss_latency_hist_seqr::gmean   100.438083                       (Unspecified)
board.cache_hierarchy.ruby_system.RequestType.ST.miss_latency_hist_seqr::stdev   113.283291                       (Unspecified)
board.cache_hierarchy.ruby_system.RequestType.ST.miss_latency_hist_seqr |     9657728     92.83%     92.83% |      602498      5.79%     98.62% |       66005      0.63%     99.26% |       66988      0.64%     99.90% |        6995      0.07%     99.97% |        2978      0.03%    100.00% |         222      0.00%    100.00% |           8      0.00%    100.00% |           2      0.00%    100.00% |           0      0.00%    100.00% (Unspecified)
board.cache_hierarchy.ruby_system.RequestType.ST.miss_latency_hist_seqr::total     10403424                       (Unspecified)
board.cache_hierarchy.ruby_system.RequestType.IFETCH.latency_hist_seqr::bucket_size          256                       (Unspecified)
board.cache_hierarchy.ruby_system.RequestType.IFETCH.latency_hist_seqr::max_bucket         2559                       (Unspecified)
board.cache_hierarchy.ruby_system.RequestType.IFETCH.latency_hist_seqr::samples    887441206                       (Unspecified)
board.cache_hierarchy.ruby_system.RequestType.IFETCH.latency_hist_seqr::mean     1.798431                       (Unspecified)
board.cache_hierarchy.ruby_system.RequestType.IFETCH.latency_hist_seqr::gmean     1.066379                       (Unspecified)
board.cache_hierarchy.ruby_system.RequestType.IFETCH.latency_hist_seqr::stdev    12.313614                       (Unspecified)
board.cache_hierarchy.ruby_system.RequestType.IFETCH.latency_hist_seqr |   887182619     99.97%     99.97% |      202406      0.02%     99.99% |       29403      0.00%    100.00% |       22675      0.00%    100.00% |        3055      0.00%    100.00% |         973      0.00%    100.00% |          71      0.00%    100.00% |           2      0.00%    100.00% |           2      0.00%    100.00% |           0      0.00%    100.00% (Unspecified)
board.cache_hierarchy.ruby_system.RequestType.IFETCH.latency_hist_seqr::total    887441206                       (Unspecified)
board.cache_hierarchy.ruby_system.RequestType.IFETCH.hit_latency_hist_seqr::bucket_size            1                       (Unspecified)
board.cache_hierarchy.ruby_system.RequestType.IFETCH.hit_latency_hist_seqr::max_bucket            9                       (Unspecified)
board.cache_hierarchy.ruby_system.RequestType.IFETCH.hit_latency_hist_seqr::samples    867120659                       (Unspecified)
board.cache_hierarchy.ruby_system.RequestType.IFETCH.hit_latency_hist_seqr::mean     1.000019                       (Unspecified)
board.cache_hierarchy.ruby_system.RequestType.IFETCH.hit_latency_hist_seqr::gmean     1.000013                       (Unspecified)
board.cache_hierarchy.ruby_system.RequestType.IFETCH.hit_latency_hist_seqr::stdev     0.004401                       (Unspecified)
board.cache_hierarchy.ruby_system.RequestType.IFETCH.hit_latency_hist_seqr |           0      0.00%      0.00% |   867103873    100.00%    100.00% |       16783      0.00%    100.00% |           3      0.00%    100.00% |           0      0.00%    100.00% |           0      0.00%    100.00% |           0      0.00%    100.00% |           0      0.00%    100.00% |           0      0.00%    100.00% |           0      0.00%    100.00% (Unspecified)
board.cache_hierarchy.ruby_system.RequestType.IFETCH.hit_latency_hist_seqr::total    867120659                       (Unspecified)
board.cache_hierarchy.ruby_system.RequestType.IFETCH.miss_latency_hist_seqr::bucket_size          256                       (Unspecified)
board.cache_hierarchy.ruby_system.RequestType.IFETCH.miss_latency_hist_seqr::max_bucket         2559                       (Unspecified)
board.cache_hierarchy.ruby_system.RequestType.IFETCH.miss_latency_hist_seqr::samples     20320547                       (Unspecified)
board.cache_hierarchy.ruby_system.RequestType.IFETCH.miss_latency_hist_seqr::mean    35.868363                       (Unspecified)
board.cache_hierarchy.ruby_system.RequestType.IFETCH.miss_latency_hist_seqr::gmean    16.546779                       (Unspecified)
board.cache_hierarchy.ruby_system.RequestType.IFETCH.miss_latency_hist_seqr::stdev    73.714484                       (Unspecified)
board.cache_hierarchy.ruby_system.RequestType.IFETCH.miss_latency_hist_seqr |    20061960     98.73%     98.73% |      202406      1.00%     99.72% |       29403      0.14%     99.87% |       22675      0.11%     99.98% |        3055      0.02%     99.99% |         973      0.00%    100.00% |          71      0.00%    100.00% |           2      0.00%    100.00% |           2      0.00%    100.00% |           0      0.00%    100.00% (Unspecified)
board.cache_hierarchy.ruby_system.RequestType.IFETCH.miss_latency_hist_seqr::total     20320547                       (Unspecified)
board.cache_hierarchy.ruby_system.RequestType.RMW_Read.latency_hist_seqr::bucket_size          256                       (Unspecified)
board.cache_hierarchy.ruby_system.RequestType.RMW_Read.latency_hist_seqr::max_bucket         2559                       (Unspecified)
board.cache_hierarchy.ruby_system.RequestType.RMW_Read.latency_hist_seqr::samples     28132671                       (Unspecified)
board.cache_hierarchy.ruby_system.RequestType.RMW_Read.latency_hist_seqr::mean    16.884034                       (Unspecified)
board.cache_hierarchy.ruby_system.RequestType.RMW_Read.latency_hist_seqr::gmean     1.357471                       (Unspecified)
board.cache_hierarchy.ruby_system.RequestType.RMW_Read.latency_hist_seqr::stdev    95.297968                       (Unspecified)
board.cache_hierarchy.ruby_system.RequestType.RMW_Read.latency_hist_seqr |    27411435     97.44%     97.44% |      380124      1.35%     98.79% |      261976      0.93%     99.72% |       62163      0.22%     99.94% |        6866      0.02%     99.96% |        1902      0.01%     99.97% |        7746      0.03%    100.00% |         459      0.00%    100.00% |           0      0.00%    100.00% |           0      0.00%    100.00% (Unspecified)
board.cache_hierarchy.ruby_system.RequestType.RMW_Read.latency_hist_seqr::total     28132671                       (Unspecified)
board.cache_hierarchy.ruby_system.RequestType.RMW_Read.hit_latency_hist_seqr::bucket_size            8                       (Unspecified)
board.cache_hierarchy.ruby_system.RequestType.RMW_Read.hit_latency_hist_seqr::max_bucket           79                       (Unspecified)
board.cache_hierarchy.ruby_system.RequestType.RMW_Read.hit_latency_hist_seqr::samples     26774912                       (Unspecified)
board.cache_hierarchy.ruby_system.RequestType.RMW_Read.hit_latency_hist_seqr::mean     1.117085                       (Unspecified)
[...]
board.processor.cores3.core.fetch.nisnDist::5     57498330      2.51%     75.16% # Number of instructions fetched each cycle (Total) (Count)
board.processor.cores3.core.fetch.nisnDist::6     52227040      2.28%     77.44% # Number of instructions fetched each cycle (Total) (Count)
board.processor.cores3.core.fetch.nisnDist::7     42160764      1.84%     79.28% # Number of instructions fetched each cycle (Total) (Count)
board.processor.cores3.core.fetch.nisnDist::8    474746637     20.72%    100.00% # Number of instructions fetched each cycle (Total) (Count)
board.processor.cores3.core.fetch.nisnDist::overflows            0      0.00%    100.00% # Number of instructions fetched each cycle (Total) (Count)
board.processor.cores3.core.fetch.nisnDist::min_value            0                       # Number of instructions fetched each cycle (Total) (Count)
board.processor.cores3.core.fetch.nisnDist::max_value            8                       # Number of instructions fetched each cycle (Total) (Count)
board.processor.cores3.core.fetch.nisnDist::total   2291528432                       # Number of instructions fetched each cycle (Total) (Count)
board.processor.cores3.core.fetchStats0.numInsts   2508110614                       # Number of instructions fetched (thread level) (Count)
board.processor.cores3.core.fetchStats0.numOps            0                       # Number of ops (including micro ops) fetched (thread level) (Count)
board.processor.cores3.core.fetchStats0.fetchRate     1.027419                       # Number of inst fetches per cycle ((Count/Cycle))
board.processor.cores3.core.fetchStats0.numBranches    617811999                       # Number of branches fetched (Count)
board.processor.cores3.core.fetchStats0.branchRate     0.253080                       # Number of branch fetches per cycle (Ratio)
board.processor.cores3.core.fetchStats0.icacheStallCycles    507965065                       # ICache total stall cycles (Cycle)
board.processor.cores3.core.fetchStats0.numFetchSuspends            0                       # Number of times Execute suspended instruction fetching (Count)
board.processor.cores3.core.iew.idleCycles            0                       # Number of cycles IEW is idle (Cycle)
board.processor.cores3.core.iew.squashCycles     26952923                       # Number of cycles IEW is squashing (Cycle)
board.processor.cores3.core.iew.blockCycles    299665440                       # Number of cycles IEW is blocking (Cycle)
board.processor.cores3.core.iew.unblockCycles     61502590                       # Number of cycles IEW is unblocking (Cycle)
board.processor.cores3.core.iew.dispatchedInsts   4557308163                       # Number of instructions dispatched to IQ (Count)
board.processor.cores3.core.iew.dispSquashedInsts      4030139                       # Number of squashed instructions skipped by dispatch (Count)
board.processor.cores3.core.iew.dispLoadInsts    615392788                       # Number of dispatched load instructions (Count)
board.processor.cores3.core.iew.dispStoreInsts    353996517                       # Number of dispatched store instructions (Count)
board.processor.cores3.core.iew.dispNonSpecInsts      6527947                       # Number of dispatched non-speculative instructions (Count)
board.processor.cores3.core.iew.iqFullEvents      2728727                       # Number of times the IQ has become full, causing a stall (Count)
board.processor.cores3.core.iew.lsqFullEvents     56623596                       # Number of times the LSQ has become full, causing a stall (Count)
board.processor.cores3.core.iew.memOrderViolationEvents      1514391                       # Number of memory order violations (Count)
board.processor.cores3.core.iew.predictedTakenIncorrect      7336665                       # Number of branches that were predicted taken incorrectly (Count)
board.processor.cores3.core.iew.predictedNotTakenIncorrect     20764321                       # Number of branches that were predicted not taken incorrectly (Count)
board.processor.cores3.core.iew.branchMispredicts     28100986                       # Number of branch mispredicts detected at execute (Count)
board.processor.cores3.core.iew.instsToCommit   4205981947                       # Cumulative count of insts sent to commit (Count)
board.processor.cores3.core.iew.writebackCount   4191022034                       # Cumulative count of insts written-back (Count)
board.processor.cores3.core.iew.producerInst   2974944903                       # Number of instructions producing a value (Count)
board.processor.cores3.core.iew.consumerInst   4955296941                       # Number of instructions consuming a value (Count)
board.processor.cores3.core.iew.wbRate       1.716804                       # Insts written-back per cycle ((Count/Cycle))
board.processor.cores3.core.iew.wbFanout     0.600357                       # Average fanout of values written-back ((Count/Count))
board.processor.cores3.core.interrupts.clk_domain.clock         5328                       # Clock period in ticks (Tick)
board.processor.cores3.core.lsq0.forwLoads     62796221                       # Number of loads that had data forwarded from stores (Count)
board.processor.cores3.core.lsq0.squashedLoads    133936747                       # Number of loads squashed (Count)
board.processor.cores3.core.lsq0.ignoredResponses       370167                       # Number of memory responses ignored because the instruction is squashed (Count)
board.processor.cores3.core.lsq0.memOrderViolation      1514391                       # Number of memory ordering violations (Count)
board.processor.cores3.core.lsq0.squashedStores     77465204                       # Number of stores squashed (Count)
board.processor.cores3.core.lsq0.rescheduledLoads       440402                       # Number of loads that were rescheduled (Count)
board.processor.cores3.core.lsq0.blockedByCache       165085                       # Number of times an access to memory failed due to the cache being blocked (Count)
board.processor.cores3.core.lsq0.loadToUse::samples    481097543                       # Distribution of cycle latency between the first time a load is issued and its completion (Unspecified)
board.processor.cores3.core.lsq0.loadToUse::mean     5.721718                       # Distribution of cycle latency between the first time a load is issued and its completion (Unspecified)
board.processor.cores3.core.lsq0.loadToUse::stdev    24.844333                       # Distribution of cycle latency between the first time a load is issued and its completion (Unspecified)
board.processor.cores3.core.lsq0.loadToUse::0-9    459119044     95.43%     95.43% # Distribution of cycle latency between the first time a load is issued and its completion (Unspecified)
board.processor.cores3.core.lsq0.loadToUse::10-19     11054547      2.30%     97.73% # Distribution of cycle latency between the first time a load is issued and its completion (Unspecified)
board.processor.cores3.core.lsq0.loadToUse::20-29      3400153      0.71%     98.44% # Distribution of cycle latency between the first time a load is issued and its completion (Unspecified)
board.processor.cores3.core.lsq0.loadToUse::30-39      1237121      0.26%     98.69% # Distribution of cycle latency between the first time a load is issued and its completion (Unspecified)
board.processor.cores3.core.lsq0.loadToUse::40-49       400149      0.08%     98.78% # Distribution of cycle latency between the first time a load is issued and its completion (Unspecified)
board.processor.cores3.core.lsq0.loadToUse::50-59       183174      0.04%     98.81% # Distribution of cycle latency between the first time a load is issued and its completion (Unspecified)
board.processor.cores3.core.lsq0.loadToUse::60-69       104392      0.02%     98.84% # Distribution of cycle latency between the first time a load is issued and its completion (Unspecified)
board.processor.cores3.core.lsq0.loadToUse::70-79        68007      0.01%     98.85% # Distribution of cycle latency between the first time a load is issued and its completion (Unspecified)
board.processor.cores3.core.lsq0.loadToUse::80-89        63157      0.01%     98.86% # Distribution of cycle latency between the first time a load is issued and its completion (Unspecified)
board.processor.cores3.core.lsq0.loadToUse::90-99        76751      0.02%     98.88% # Distribution of cycle latency between the first time a load is issued and its completion (Unspecified)
board.processor.cores3.core.lsq0.loadToUse::100-109        80688      0.02%     98.90% # Distribution of cycle latency between the first time a load is issued and its completion (Unspecified)
board.processor.cores3.core.lsq0.loadToUse::110-119       163305      0.03%     98.93% # Distribution of cycle latency between the first time a load is issued and its completion (Unspecified)
board.processor.cores3.core.lsq0.loadToUse::120-129       225350      0.05%     98.98% # Distribution of cycle latency between the first time a load is issued and its completion (Unspecified)
board.processor.cores3.core.lsq0.loadToUse::130-139       561318      0.12%     99.09% # Distribution of cycle latency between the first time a load is issued and its completion (Unspecified)
board.processor.cores3.core.lsq0.loadToUse::140-149      1262499      0.26%     99.36% # Distribution of cycle latency between the first time a load is issued and its completion (Unspecified)
board.processor.cores3.core.lsq0.loadToUse::150-159       380273      0.08%     99.44% # Distribution of cycle latency between the first time a load is issued and its completion (Unspecified)
board.processor.cores3.core.lsq0.loadToUse::160-169       144613      0.03%     99.47% # Distribution of cycle latency between the first time a load is issued and its completion (Unspecified)
board.processor.cores3.core.lsq0.loadToUse::170-179       113176      0.02%     99.49% # Distribution of cycle latency between the first time a load is issued and its completion (Unspecified)
board.processor.cores3.core.lsq0.loadToUse::180-189       344838      0.07%     99.56% # Distribution of cycle latency between the first time a load is issued and its completion (Unspecified)
board.processor.cores3.core.lsq0.loadToUse::190-199       243179      0.05%     99.61% # Distribution of cycle latency between the first time a load is issued and its completion (Unspecified)
board.processor.cores3.core.lsq0.loadToUse::200-209       137599      0.03%     99.64% # Distribution of cycle latency between the first time a load is issued and its completion (Unspecified)
board.processor.cores3.core.lsq0.loadToUse::210-219       101087      0.02%     99.66% # Distribution of cycle latency between the first time a load is issued and its completion (Unspecified)
board.processor.cores3.core.lsq0.loadToUse::220-229       451302      0.09%     99.75% # Distribution of cycle latency between the first time a load is issued and its completion (Unspecified)
board.processor.cores3.core.lsq0.loadToUse::230-239       287940      0.06%     99.81% # Distribution of cycle latency between the first time a load is issued and its completion (Unspecified)
board.processor.cores3.core.lsq0.loadToUse::240-249       163773      0.03%     99.85% # Distribution of cycle latency between the first time a load is issued and its completion (Unspecified)
board.processor.cores3.core.lsq0.loadToUse::250-259        58491      0.01%     99.86% # Distribution of cycle latency between the first time a load is issued and its completion (Unspecified)
board.processor.cores3.core.lsq0.loadToUse::260-269        45011      0.01%     99.87% # Distribution of cycle latency between the first time a load is issued and its completion (Unspecified)
board.processor.cores3.core.lsq0.loadToUse::270-279        32954      0.01%     99.88% # Distribution of cycle latency between the first time a load is issued and its completion (Unspecified)
board.processor.cores3.core.lsq0.loadToUse::280-289        31739      0.01%     99.88% # Distribution of cycle latency between the first time a load is issued and its completion (Unspecified)
board.processor.cores3.core.lsq0.loadToUse::290-299        25195      0.01%     99.89% # Distribution of cycle latency between the first time a load is issued and its completion (Unspecified)
board.processor.cores3.core.lsq0.loadToUse::overflows       536718      0.11%    100.00% # Distribution of cycle latency between the first time a load is issued and its completion (Unspecified)
board.processor.cores3.core.lsq0.loadToUse::min_value            2                       # Distribution of cycle latency between the first time a load is issued and its completion (Unspecified)
board.processor.cores3.core.lsq0.loadToUse::max_value         3485                       # Distribution of cycle latency between the first time a load is issued and its completion (Unspecified)
board.processor.cores3.core.lsq0.loadToUse::total    481097543                       # Distribution of cycle latency between the first time a load is issued and its completion (Unspecified)
board.processor.cores3.core.mmu.dtb.rdAccesses    580155551                       # TLB accesses on read requests (Count)
board.processor.cores3.core.mmu.dtb.wrAccesses    325584341                       # TLB accesses on write requests (Count)
board.processor.cores3.core.mmu.dtb.rdMisses     14433317                       # TLB misses on read requests (Count)
board.processor.cores3.core.mmu.dtb.wrMisses      3287601                       # TLB misses on write requests (Count)
board.processor.cores3.core.mmu.dtb.walker.power_state.pwrStateResidencyTicks::UNDEFINED 13522611196323                       # Cumulative time (in ticks) in various power states (Tick)
board.processor.cores3.core.mmu.itb.rdAccesses            0                       # TLB accesses on read requests (Count)
board.processor.cores3.core.mmu.itb.wrAccesses    357737700                       # TLB accesses on write requests (Count)
board.processor.cores3.core.mmu.itb.rdMisses            0                       # TLB misses on read requests (Count)
board.processor.cores3.core.mmu.itb.wrMisses      5251178                       # TLB misses on write requests (Count)
board.processor.cores3.core.mmu.itb.walker.power_state.pwrStateResidencyTicks::UNDEFINED 13522611196323                       # Cumulative time (in ticks) in various power states (Tick)
board.processor.cores3.core.power_state.numTransitions        27124                       # Number of power state transitions (Count)
board.processor.cores3.core.power_state.ticksClkGated::samples        13563                       # Distribution of time spent in the clock gated state (Tick)
board.processor.cores3.core.power_state.ticksClkGated::mean 937086455.645654                       # Distribution of time spent in the clock gated state (Tick)
board.processor.cores3.core.power_state.ticksClkGated::stdev 3599103491.778386                       # Distribution of time spent in the clock gated state (Tick)
board.processor.cores3.core.power_state.ticksClkGated::1000-5e+10        13562     99.99%     99.99% # Distribution of time spent in the clock gated state (Tick)
board.processor.cores3.core.power_state.ticksClkGated::4e+11-4.5e+11            1      0.01%    100.00% # Distribution of time spent in the clock gated state (Tick)
board.processor.cores3.core.power_state.ticksClkGated::min_value        65602                       # Distribution of time spent in the clock gated state (Tick)
board.processor.cores3.core.power_state.ticksClkGated::max_value 417999422494                       # Distribution of time spent in the clock gated state (Tick)
board.processor.cores3.core.power_state.ticksClkGated::total        13563                       # Distribution of time spent in the clock gated state (Tick)
board.processor.cores3.core.power_state.pwrStateResidencyTicks::ON 812907598401                       # Cumulative time (in ticks) in various power states (Tick)
board.processor.cores3.core.power_state.pwrStateResidencyTicks::CLK_GATED 12709703597922                       # Cumulative time (in ticks) in various power states (Tick)
board.processor.cores3.core.rename.squashCycles     26952923                       # Number of cycles rename is squashing (Cycle)
board.processor.cores3.core.rename.idleCycles    535179405                       # Number of cycles rename is idle (Cycle)
board.processor.cores3.core.rename.blockCycles    472347010                       # Number of cycles rename is blocking (Cycle)
board.processor.cores3.core.rename.serializeStallCycles    128982085                       # count of cycles rename stalled for serializing inst (Cycle)
board.processor.cores3.core.rename.runCycles    686142934                       # Number of cycles rename is running (Cycle)
board.processor.cores3.core.rename.unblockCycles    441924075                       # Number of cycles rename is unblocking (Cycle)
board.processor.cores3.core.rename.renamedInsts   4721870816                       # Number of instructions processed by rename (Count)
board.processor.cores3.core.rename.ROBFullEvents     10828684                       # Number of times rename has blocked due to ROB full (Count)
board.processor.cores3.core.rename.IQFullEvents     65966660                       # Number of times rename has blocked due to IQ full (Count)
board.processor.cores3.core.rename.LQFullEvents     19825403                       # Number of times rename has blocked due to LQ full (Count)
board.processor.cores3.core.rename.SQFullEvents    338763711                       # Number of times rename has blocked due to SQ full (Count)
board.processor.cores3.core.rename.fullRegistersEvents         3595                       # Number of times there has been no free registers (Count)
board.processor.cores3.core.rename.renamedOperands   7553953867                       # Number of destination operands rename has renamed (Count)
board.processor.cores3.core.rename.lookups  15445775964                       # Number of register rename lookups that rename has made (Count)
board.processor.cores3.core.rename.intLookups   5993370447                       # Number of integer rename lookups (Count)
board.processor.cores3.core.rename.fpLookups    123695686                       # Number of floating rename lookups (Count)
board.processor.cores3.core.rename.committedMaps   5861780395                       # Number of HB maps that are committed (Count)
board.processor.cores3.core.rename.undoneMaps   1692173472                       # Number of HB maps that are undone due to squashing (Count)
board.processor.cores3.core.rename.serializing      5838481                       # count of serializing insts renamed (Count)
board.processor.cores3.core.rename.tempSerializing      4324168                       # count of temporary serializing insts renamed (Count)
board.processor.cores3.core.rename.skidInsts    320785316                       # count of insts added to the skid buffer (Count)
board.processor.cores3.core.rob.reads      6464425813                       # The number of ROB reads (Count)
board.processor.cores3.core.rob.writes     9219759500                       # The number of ROB writes (Count)
board.processor.cores3.core.thread_0.numInsts   1757662499                       # Number of Instructions committed (Count)
board.processor.cores3.core.thread_0.numOps   3620186730                       # Number of Ops committed (Count)
board.processor.cores3.core.thread_0.numMemRefs            0                       # Number of Memory References (Count)
board.workload.inst.arm                             0                       # number of arm instructions executed (Count)
board.workload.inst.quiesce                         0                       # number of quiesce instructions executed (Count)

---------- End Simulation Statistics   ----------
