
---------- Begin Simulation Statistics ----------
simSeconds                                  14.647625                       # Number of seconds simulated (Second)
simTicks                                 14647625412633                       # Number of ticks simulated (Tick)
finalTick                                14647625412633                       # Number of ticks from beginning of simulation (restored from checkpoints and never reset) (Tick)
simFreq                                  1000000000000                       # The number of ticks per simulated second ((Tick/Second))
hostSeconds                                 150124.27                       # Real time elapsed on the host (Second)
hostTickRate                                 97570002                       # The number of ticks simulated per host second (ticks/s) ((Tick/Second))
hostMemory                                   29338604                       # Number of bytes of host memory used (Byte)
simInsts                                   5990227079                       # Number of instructions simulated (Count)
simOps                                    13286839861                       # Number of ops (including micro ops) simulated (Count)
hostInstRate                                    39902                       # Simulator instruction rate (inst/s) ((Count/Second))
hostOpRate                                      88506                       # Simulator op (including micro ops) rate (op/s) ((Count/Second))
board.cache_hierarchy.ruby_system.delayHistogram::bucket_size         1024                       # delay histogram for all message (Unspecified)
board.cache_hierarchy.ruby_system.delayHistogram::max_bucket        10239                       # delay histogram for all message (Unspecified)
board.cache_hierarchy.ruby_system.delayHistogram::samples    819836512                       # delay histogram for all message (Unspecified)
board.cache_hierarchy.ruby_system.delayHistogram::mean     0.738720                       # delay histogram for all message (Unspecified)
board.cache_hierarchy.ruby_system.delayHistogram::stdev     2.948260                       # delay histogram for all message (Unspecified)
board.cache_hierarchy.ruby_system.delayHistogram |   819836322    100.00%    100.00% |         166      0.00%    100.00% |          13      0.00%    100.00% |           5      0.00%    100.00% |           2      0.00%    100.00% |           2      0.00%    100.00% |           2      0.00%    100.00% |           0      0.00%    100.00% |           0      0.00%    100.00% |           0      0.00%    100.00% # delay histogram for all message (Unspecified)
board.cache_hierarchy.ruby_system.delayHistogram::total    819836512                       # delay histogram for all message (Unspecified)
board.cache_hierarchy.ruby_system.m_outstandReqHistSeqr::bucket_size            2                       (Unspecified)
board.cache_hierarchy.ruby_system.m_outstandReqHistSeqr::max_bucket           19                       (Unspecified)
board.cache_hierarchy.ruby_system.m_outstandReqHistSeqr::samples   3171669540                       (Unspecified)
board.cache_hierarchy.ruby_system.m_outstandReqHistSeqr::mean     1.916753                       (Unspecified)
board.cache_hierarchy.ruby_system.m_outstandReqHistSeqr::gmean     1.569816                       (Unspecified)
board.cache_hierarchy.ruby_system.m_outstandReqHistSeqr::stdev     1.636991                       (Unspecified)
board.cache_hierarchy.ruby_system.m_outstandReqHistSeqr |  1727980862     54.48%     54.48% |  1139683056     35.93%     90.41% |   205363557      6.47%     96.89% |    48867986      1.54%     98.43% |    19537230      0.62%     99.05% |    11836463      0.37%     99.42% |     7557750      0.24%     99.66% |     5727097      0.18%     99.84% |     5115539      0.16%    100.00% |           0      0.00%    100.00% (Unspecified)
board.cache_hierarchy.ruby_system.m_outstandReqHistSeqr::total   3171669540                       (Unspecified)
board.cache_hierarchy.ruby_system.m_latencyHistSeqr::bucket_size          512                       (Unspecified)
board.cache_hierarchy.ruby_system.m_latencyHistSeqr::max_bucket         5119                       (Unspecified)
board.cache_hierarchy.ruby_system.m_latencyHistSeqr::samples   3183619836                       (Unspecified)
board.cache_hierarchy.ruby_system.m_latencyHistSeqr::mean     6.122716                       (Unspecified)
board.cache_hierarchy.ruby_system.m_latencyHistSeqr::gmean     1.240075                       (Unspecified)
board.cache_hierarchy.ruby_system.m_latencyHistSeqr::stdev    37.563694                       (Unspecified)
board.cache_hierarchy.ruby_system.m_latencyHistSeqr |  3180705954     99.91%     99.91% |     2663123      0.08%     99.99% |      237727      0.01%    100.00% |       11917      0.00%    100.00% |         958      0.00%    100.00% |         143      0.00%    100.00% |          14      0.00%    100.00% |           0      0.00%    100.00% |           0      0.00%    100.00% |           0      0.00%    100.00% (Unspecified)
board.cache_hierarchy.ruby_system.m_latencyHistSeqr::total   3183619836                       (Unspecified)
board.cache_hierarchy.ruby_system.m_hitLatencyHistSeqr::bucket_size          512                       (Unspecified)
board.cache_hierarchy.ruby_system.m_hitLatencyHistSeqr::max_bucket         5119                       (Unspecified)
board.cache_hierarchy.ruby_system.m_hitLatencyHistSeqr::samples   2993344634                       (Unspecified)
board.cache_hierarchy.ruby_system.m_hitLatencyHistSeqr::mean     1.094095                       (Unspecified)
board.cache_hierarchy.ruby_system.m_hitLatencyHistSeqr::gmean     1.005236                       (Unspecified)
board.cache_hierarchy.ruby_system.m_hitLatencyHistSeqr::stdev     6.206457                       (Unspecified)
board.cache_hierarchy.ruby_system.m_hitLatencyHistSeqr |  2993120576     99.99%     99.99% |      219068      0.01%    100.00% |        4335      0.00%    100.00% |         648      0.00%    100.00% |           6      0.00%    100.00% |           0      0.00%    100.00% |           1      0.00%    100.00% |           0      0.00%    100.00% |           0      0.00%    100.00% |           0      0.00%    100.00% (Unspecified)
board.cache_hierarchy.ruby_system.m_hitLatencyHistSeqr::total   2993344634                       (Unspecified)
board.cache_hierarchy.ruby_system.m_missLatencyHistSeqr::bucket_size          512                       (Unspecified)
board.cache_hierarchy.ruby_system.m_missLatencyHistSeqr::max_bucket         5119                       (Unspecified)
board.cache_hierarchy.ruby_system.m_missLatencyHistSeqr::samples    190275202                       (Unspecified)
board.cache_hierarchy.ruby_system.m_missLatencyHistSeqr::mean    85.231266                       (Unspecified)
board.cache_hierarchy.ruby_system.m_missLatencyHistSeqr::gmean    33.717852                       (Unspecified)
board.cache_hierarchy.ruby_system.m_missLatencyHistSeqr::stdev   127.855140                       (Unspecified)
board.cache_hierarchy.ruby_system.m_missLatencyHistSeqr |   187585378     98.59%     98.59% |     2444055      1.28%     99.87% |      233392      0.12%     99.99% |       11269      0.01%    100.00% |         952      0.00%    100.00% |         143      0.00%    100.00% |          13      0.00%    100.00% |           0      0.00%    100.00% |           0      0.00%    100.00% |           0      0.00%    100.00% (Unspecified)
board.cache_hierarchy.ruby_system.m_missLatencyHistSeqr::total    190275202                       (Unspecified)
board.cache_hierarchy.ruby_system.delayVCHist.vnet_0::bucket_size         1024                       # delay histogram for vnet_0 (Unspecified)
board.cache_hierarchy.ruby_system.delayVCHist.vnet_0::max_bucket        10239                       # delay histogram for vnet_0 (Unspecified)
board.cache_hierarchy.ruby_system.delayVCHist.vnet_0::samples    353289126                       # delay histogram for vnet_0 (Unspecified)
board.cache_hierarchy.ruby_system.delayVCHist.vnet_0::mean     1.081274                       # delay histogram for vnet_0 (Unspecified)
board.cache_hierarchy.ruby_system.delayVCHist.vnet_0::stdev     3.687708                       # delay histogram for vnet_0 (Unspecified)
board.cache_hierarchy.ruby_system.delayVCHist.vnet_0 |   353288936    100.00%    100.00% |         166      0.00%    100.00% |          13      0.00%    100.00% |           5      0.00%    100.00% |           2      0.00%    100.00% |           2      0.00%    100.00% |           2      0.00%    100.00% |           0      0.00%    100.00% |           0      0.00%    100.00% |           0      0.00%    100.00% # delay histogram for vnet_0 (Unspecified)
board.cache_hierarchy.ruby_system.delayVCHist.vnet_0::total    353289126                       # delay histogram for vnet_0 (Unspecified)
board.cache_hierarchy.ruby_system.delayVCHist.vnet_1::bucket_size           16                       # delay histogram for vnet_1 (Unspecified)
board.cache_hierarchy.ruby_system.delayVCHist.vnet_1::max_bucket          159                       # delay histogram for vnet_1 (Unspecified)
board.cache_hierarchy.ruby_system.delayVCHist.vnet_1::samples    428793309                       # delay histogram for vnet_1 (Unspecified)
board.cache_hierarchy.ruby_system.delayVCHist.vnet_1::mean     0.521439                       # delay histogram for vnet_1 (Unspecified)
board.cache_hierarchy.ruby_system.delayVCHist.vnet_1::stdev     2.285315                       # delay histogram for vnet_1 (Unspecified)
board.cache_hierarchy.ruby_system.delayVCHist.vnet_1 |   427102504     99.61%     99.61% |     1395695      0.33%     99.93% |      237722      0.06%     99.99% |       44482      0.01%    100.00% |       10921      0.00%    100.00% |        1632      0.00%    100.00% |         342      0.00%    100.00% |          11      0.00%    100.00% |           0      0.00%    100.00% |           0      0.00%    100.00% # delay histogram for vnet_1 (Unspecified)
board.cache_hierarchy.ruby_system.delayVCHist.vnet_1::total    428793309                       # delay histogram for vnet_1 (Unspecified)
board.cache_hierarchy.ruby_system.delayVCHist.vnet_2::bucket_size            1                       # delay histogram for vnet_2 (Unspecified)
board.cache_hierarchy.ruby_system.delayVCHist.vnet_2::max_bucket            9                       # delay histogram for vnet_2 (Unspecified)
board.cache_hierarchy.ruby_system.delayVCHist.vnet_2::samples     37754077                       # delay histogram for vnet_2 (Unspecified)
board.cache_hierarchy.ruby_system.delayVCHist.vnet_2::mean     0.000997                       # delay histogram for vnet_2 (Unspecified)
board.cache_hierarchy.ruby_system.delayVCHist.vnet_2::stdev     0.044767                       # delay histogram for vnet_2 (Unspecified)
board.cache_hierarchy.ruby_system.delayVCHist.vnet_2 |    37735302     99.95%     99.95% |           0      0.00%     99.95% |       18725      0.05%    100.00% |           0      0.00%    100.00% |          50      0.00%    100.00% |           0      0.00%    100.00% |           0      0.00%    100.00% |           0      0.00%    100.00% |           0      0.00%    100.00% |           0      0.00%    100.00% # delay histogram for vnet_2 (Unspecified)
board.cache_hierarchy.ruby_system.delayVCHist.vnet_2::total     37754077                       # delay histogram for vnet_2 (Unspecified)
board.cache_hierarchy.ruby_system.Directory_Controller.Fetch     61450155      0.00%      0.00% (Unspecified)
board.cache_hierarchy.ruby_system.Directory_Controller.Data     17222126      0.00%      0.00% (Unspecified)
board.cache_hierarchy.ruby_system.Directory_Controller.Memory_Data     61573316      0.00%      0.00% (Unspecified)
board.cache_hierarchy.ruby_system.Directory_Controller.Memory_Ack     18537175      0.00%      0.00% (Unspecified)
board.cache_hierarchy.ruby_system.Directory_Controller.DMA_READ       130207      0.00%      0.00% (Unspecified)
board.cache_hierarchy.ruby_system.Directory_Controller.DMA_WRITE      1315808      0.00%      0.00% (Unspecified)
board.cache_hierarchy.ruby_system.Directory_Controller.CleanReplacement     44223933      0.00%      0.00% (Unspecified)
board.cache_hierarchy.ruby_system.Directory_Controller.I.Fetch     61450155      0.00%      0.00% (Unspecified)
board.cache_hierarchy.ruby_system.Directory_Controller.I.DMA_READ       123161      0.00%      0.00% (Unspecified)
board.cache_hierarchy.ruby_system.Directory_Controller.I.DMA_WRITE      1315049      0.00%      0.00% (Unspecified)
board.cache_hierarchy.ruby_system.Directory_Controller.ID.Memory_Data       123161      0.00%      0.00% (Unspecified)
board.cache_hierarchy.ruby_system.Directory_Controller.ID_W.Memory_Ack      1315049      0.00%      0.00% (Unspecified)
board.cache_hierarchy.ruby_system.Directory_Controller.M.Data     17214321      0.00%      0.00% (Unspecified)
board.cache_hierarchy.ruby_system.Directory_Controller.M.DMA_READ         7046      0.00%      0.00% (Unspecified)
board.cache_hierarchy.ruby_system.Directory_Controller.M.DMA_WRITE          759      0.00%      0.00% (Unspecified)
board.cache_hierarchy.ruby_system.Directory_Controller.M.CleanReplacement     44223933      0.00%      0.00% (Unspecified)
board.cache_hierarchy.ruby_system.Directory_Controller.IM.Memory_Data     61450155      0.00%      0.00% (Unspecified)
board.cache_hierarchy.ruby_system.Directory_Controller.MI.Memory_Ack     17214321      0.00%      0.00% (Unspecified)
board.cache_hierarchy.ruby_system.Directory_Controller.M_DRD.Data         7046      0.00%      0.00% (Unspecified)
board.cache_hierarchy.ruby_system.Directory_Controller.M_DRDI.Memory_Ack         7046      0.00%      0.00% (Unspecified)
board.cache_hierarchy.ruby_system.Directory_Controller.M_DWR.Data          759      0.00%      0.00% (Unspecified)
board.cache_hierarchy.ruby_system.Directory_Controller.M_DWRI.Memory_Ack          759      0.00%      0.00% (Unspecified)
board.cache_hierarchy.ruby_system.DMA_Controller.ReadRequest |      130207    100.00%    100.00% |           0      0.00%    100.00% (Unspecified)
board.cache_hierarchy.ruby_system.DMA_Controller.ReadRequest::total       130207                       (Unspecified)
board.cache_hierarchy.ruby_system.DMA_Controller.WriteRequest |     1315808    100.00%    100.00% |           0      0.00%    100.00% (Unspecified)
board.cache_hierarchy.ruby_system.DMA_Controller.WriteRequest::total      1315808                       (Unspecified)
board.cache_hierarchy.ruby_system.DMA_Controller.Data |      130207    100.00%    100.00% |           0      0.00%    100.00% (Unspecified)
board.cache_hierarchy.ruby_system.DMA_Controller.Data::total       130207                       (Unspecified)
board.cache_hierarchy.ruby_system.DMA_Controller.Ack |     1315808    100.00%    100.00% |           0      0.00%    100.00% (Unspecified)
board.cache_hierarchy.ruby_system.DMA_Controller.Ack::total      1315808                       (Unspecified)
board.cache_hierarchy.ruby_system.DMA_Controller.READY.ReadRequest |      130207    100.00%    100.00% |           0      0.00%    100.00% (Unspecified)
board.cache_hierarchy.ruby_system.DMA_Controller.READY.ReadRequest::total       130207                       (Unspecified)
board.cache_hierarchy.ruby_system.DMA_Controller.READY.WriteRequest |     1315808    100.00%    100.00% |           0      0.00%    100.00% (Unspecified)
board.cache_hierarchy.ruby_system.DMA_Controller.READY.WriteRequest::total      1315808                       (Unspecified)
board.cache_hierarchy.ruby_system.DMA_Controller.BUSY_RD.Data |      130207    100.00%    100.00% |           0      0.00%    100.00% (Unspecified)
board.cache_hierarchy.ruby_system.DMA_Controller.BUSY_RD.Data::total       130207                       (Unspecified)
board.cache_hierarchy.ruby_system.DMA_Controller.BUSY_WR.Ack |     1315808    100.00%    100.00% |           0      0.00%    100.00% (Unspecified)
board.cache_hierarchy.ruby_system.DMA_Controller.BUSY_WR.Ack::total      1315808                       (Unspecified)
board.cache_hierarchy.ruby_system.L1Cache_Controller.Load |   493523159     33.03%     33.03% |    57733465      3.86%     36.89% |    62840452      4.21%     41.09% |   205707405     13.77%     54.86% |    71218489      4.77%     59.63% |    42507129      2.84%     62.47% |    86932121      5.82%     68.29% |   473907735     31.71%    100.00% (Unspecified)
board.cache_hierarchy.ruby_system.L1Cache_Controller.Load::total   1494369955                       (Unspecified)
board.cache_hierarchy.ruby_system.L1Cache_Controller.Ifetch |   222127017     23.33%     23.33% |    46234160      4.86%     28.18% |    50176521      5.27%     33.45% |   173680224     18.24%     51.69% |    60961445      6.40%     58.10% |    34622664      3.64%     61.73% |    64210798      6.74%     68.48% |   300165726     31.52%    100.00% (Unspecified)
board.cache_hierarchy.ruby_system.L1Cache_Controller.Ifetch::total    952178555                       (Unspecified)
board.cache_hierarchy.ruby_system.L1Cache_Controller.Store |   130094463     17.65%     17.65% |    44452687      6.03%     23.68% |    60464501      8.20%     31.88% |   110481442     14.99%     46.87% |    50927381      6.91%     53.78% |    29323303      3.98%     57.76% |    56663615      7.69%     65.44% |   254723592     34.56%    100.00% (Unspecified)
board.cache_hierarchy.ruby_system.L1Cache_Controller.Store::total    737130984                       (Unspecified)
board.cache_hierarchy.ruby_system.L1Cache_Controller.Inv |     3736555     10.22%     10.22% |     4038574     11.05%     21.27% |     3024967      8.27%     29.54% |     3951422     10.81%     40.35% |     3839424     10.50%     50.85% |     2828574      7.74%     58.59% |     3034138      8.30%     66.89% |    12105386     33.11%    100.00% (Unspecified)
board.cache_hierarchy.ruby_system.L1Cache_Controller.Inv::total     36559040                       (Unspecified)
board.cache_hierarchy.ruby_system.L1Cache_Controller.L1_Replacement |    19487981     10.66%     10.66% |     9899181      5.41%     16.07% |     8700922      4.76%     20.83% |    24028101     13.14%     33.97% |    11942640      6.53%     40.50% |     6353411      3.47%     43.98% |    12224378      6.69%     50.66% |    90215839     49.34%    100.00% (Unspecified)
board.cache_hierarchy.ruby_system.L1Cache_Controller.L1_Replacement::total    182852453                       (Unspecified)
board.cache_hierarchy.ruby_system.L1Cache_Controller.Fwd_GETX |       23521     13.57%     13.57% |       33022     19.05%     32.61% |       18765     10.82%     43.43% |       21550     12.43%     55.86% |       29269     16.88%     72.74% |       14749      8.51%     81.25% |       13137      7.58%     88.83% |       19375     11.17%    100.00% (Unspecified)
board.cache_hierarchy.ruby_system.L1Cache_Controller.Fwd_GETX::total       173388                       (Unspecified)
board.cache_hierarchy.ruby_system.L1Cache_Controller.Fwd_GETS |      191721     18.77%     18.77% |      170893     16.73%     35.49% |       97163      9.51%     45.01% |      118293     11.58%     56.58% |      131418     12.86%     69.45% |      100978      9.88%     79.33% |       87502      8.57%     87.90% |      123637     12.10%    100.00% (Unspecified)
board.cache_hierarchy.ruby_system.L1Cache_Controller.Fwd_GETS::total      1021605                       (Unspecified)
board.cache_hierarchy.ruby_system.L1Cache_Controller.Fwd_GET_INSTR |           8     18.18%     18.18% |           4      9.09%     27.27% |           3      6.82%     34.09% |           4      9.09%     43.18% |           9     20.45%     63.64% |           9     20.45%     84.09% |           4      9.09%     93.18% |           3      6.82%    100.00% (Unspecified)
board.cache_hierarchy.ruby_system.L1Cache_Controller.Fwd_GET_INSTR::total           44                       (Unspecified)
board.cache_hierarchy.ruby_system.L1Cache_Controller.Data |        5939     20.09%     20.09% |        2610      8.83%     28.93% |        4233     14.32%     43.25% |        3036     10.27%     53.52% |        4135     13.99%     67.51% |        3089     10.45%     77.96% |        2345      7.93%     85.90% |        4168     14.10%    100.00% (Unspecified)
board.cache_hierarchy.ruby_system.L1Cache_Controller.Data::total        29555                       (Unspecified)
board.cache_hierarchy.ruby_system.L1Cache_Controller.Data_Exclusive |     7960988     12.10%     12.10% |     2701704      4.11%     16.21% |     2193383      3.33%     19.55% |    10181102     15.48%     35.03% |     3469876      5.28%     40.30% |     2142157      3.26%     43.56% |     4890158      7.44%     51.00% |    32229825     49.00%    100.00% (Unspecified)
board.cache_hierarchy.ruby_system.L1Cache_Controller.Data_Exclusive::total     65769193                       (Unspecified)
board.cache_hierarchy.ruby_system.L1Cache_Controller.DataS_fromL1 |      112344     11.00%     11.00% |      198676     19.45%     30.44% |      105563     10.33%     40.78% |      120091     11.75%     52.53% |      128436     12.57%     65.10% |       90806      8.89%     73.99% |       75361      7.38%     81.37% |      190372     18.63%    100.00% (Unspecified)
board.cache_hierarchy.ruby_system.L1Cache_Controller.DataS_fromL1::total      1021649                       (Unspecified)
board.cache_hierarchy.ruby_system.L1Cache_Controller.Data_all_Acks |    12223592      9.93%      9.93% |     8032505      6.53%     16.46% |     7340529      5.97%     22.43% |    14588245     11.86%     34.29% |     9240399      7.51%     41.80% |     4980268      4.05%     45.84% |     8098204      6.58%     52.43% |    58532023     47.57%    100.00% (Unspecified)
board.cache_hierarchy.ruby_system.L1Cache_Controller.Data_all_Acks::total    123035765                       (Unspecified)
board.cache_hierarchy.ruby_system.L1Cache_Controller.Ack |      425276     47.34%     47.34% |       93772     10.44%     57.77% |       62883      7.00%     64.77% |       65541      7.30%     72.07% |       82368      9.17%     81.24% |       51606      5.74%     86.98% |       50253      5.59%     92.57% |       66713      7.43%    100.00% (Unspecified)
board.cache_hierarchy.ruby_system.L1Cache_Controller.Ack::total       898412                       (Unspecified)
board.cache_hierarchy.ruby_system.L1Cache_Controller.Ack_all |      110242     24.57%     24.57% |       72737     16.21%     40.79% |       42140      9.39%     50.18% |       45212     10.08%     60.26% |       65637     14.63%     74.89% |       34499      7.69%     82.58% |       29736      6.63%     89.21% |       48392     10.79%    100.00% (Unspecified)
board.cache_hierarchy.ruby_system.L1Cache_Controller.Ack_all::total       448595                       (Unspecified)
board.cache_hierarchy.ruby_system.L1Cache_Controller.WB_Ack |    10182294     13.05%     13.05% |     2958828      3.79%     16.84% |     2629268      3.37%     20.21% |    12909091     16.54%     36.75% |     3933010      5.04%     41.79% |     2210484      2.83%     44.63% |     5657267      7.25%     51.88% |    37553157     48.12%    100.00% (Unspecified)
board.cache_hierarchy.ruby_system.L1Cache_Controller.WB_Ack::total     78033399                       (Unspecified)
board.cache_hierarchy.ruby_system.L1Cache_Controller.NP.Load |     8197523     12.21%     12.21% |     2905867      4.33%     16.53% |     2272346      3.38%     19.92% |    10456095     15.57%     35.48% |     3654437      5.44%     40.93% |     2238439      3.33%     44.26% |     4933007      7.35%     51.60% |    32503131     48.40%    100.00% (Unspecified)
board.cache_hierarchy.ruby_system.L1Cache_Controller.NP.Load::total     67160845                       (Unspecified)
board.cache_hierarchy.ruby_system.L1Cache_Controller.NP.Ifetch |     8537140      8.64%      8.64% |     6010053      6.09%     14.73% |     5426778      5.49%     20.22% |    10261194     10.39%     30.61% |     7232410      7.32%     37.94% |     3517811      3.56%     41.50% |     6024293      6.10%     47.60% |    51750528     52.40%    100.00% (Unspecified)
board.cache_hierarchy.ruby_system.L1Cache_Controller.NP.Ifetch::total     98760207                       (Unspecified)
board.cache_hierarchy.ruby_system.L1Cache_Controller.NP.Store |     2753124     16.26%     16.26% |      982761      5.81%     22.07% |     1001415      5.92%     27.98% |     3310444     19.56%     47.54% |     1055642      6.24%     53.78% |      597119      3.53%     57.30% |     1266919      7.48%     64.79% |     5960953     35.21%    100.00% (Unspecified)
board.cache_hierarchy.ruby_system.L1Cache_Controller.NP.Store::total     16928377                       (Unspecified)
board.cache_hierarchy.ruby_system.L1Cache_Controller.NP.Inv |     2351283      9.43%      9.43% |     2180840      8.75%     18.17% |     1581031      6.34%     24.52% |     2532783     10.16%     34.67% |     2399181      9.62%     44.29% |     1474768      5.91%     50.21% |     1735100      6.96%     57.17% |    10681381     42.83%    100.00% (Unspecified)
board.cache_hierarchy.ruby_system.L1Cache_Controller.NP.Inv::total     24936367                       (Unspecified)
board.cache_hierarchy.ruby_system.L1Cache_Controller.I.Load |      289978      9.70%      9.70% |      465669     15.58%     25.28% |      388035     12.98%     38.27% |      364987     12.21%     50.48% |      395989     13.25%     63.73% |      360457     12.06%     75.79% |      348492     11.66%     87.45% |      374958     12.55%    100.00% (Unspecified)
board.cache_hierarchy.ruby_system.L1Cache_Controller.I.Load::total      2988565                       (Unspecified)
board.cache_hierarchy.ruby_system.L1Cache_Controller.I.Ifetch |      406807     12.81%     12.81% |      427098     13.45%     26.26% |      447785     14.10%     40.36% |      401845     12.65%     53.01% |      401521     12.64%     65.65% |      407942     12.84%     78.50% |      401942     12.66%     91.15% |      280965      8.85%    100.00% (Unspecified)
board.cache_hierarchy.ruby_system.L1Cache_Controller.I.Ifetch::total      3175905                       (Unspecified)
board.cache_hierarchy.ruby_system.L1Cache_Controller.I.Store |      118052     14.12%     14.12% |      143627     17.18%     31.30% |      106589     12.75%     44.05% |       96836     11.58%     55.63% |      101817     12.18%     67.81% |       93588     11.19%     79.00% |       90507     10.83%     89.83% |       85058     10.17%    100.00% (Unspecified)
board.cache_hierarchy.ruby_system.L1Cache_Controller.I.Store::total       836074                       (Unspecified)
board.cache_hierarchy.ruby_system.L1Cache_Controller.I.Inv |           4      7.27%      7.27% |           8     14.55%     21.82% |           5      9.09%     30.91% |          20     36.36%     67.27% |           2      3.64%     70.91% |          14     25.45%     96.36% |           1      1.82%     98.18% |           1      1.82%    100.00% (Unspecified)
board.cache_hierarchy.ruby_system.L1Cache_Controller.I.Inv::total           55                       (Unspecified)
board.cache_hierarchy.ruby_system.L1Cache_Controller.I.L1_Replacement |      593115     12.39%     12.39% |      853582     17.84%     30.23% |      518946     10.84%     41.08% |      574781     12.01%     53.09% |      568513     11.88%     64.97% |      505235     10.56%     75.53% |      470202      9.83%     85.35% |      700960     14.65%    100.00% (Unspecified)
board.cache_hierarchy.ruby_system.L1Cache_Controller.I.L1_Replacement::total      4785334                       (Unspecified)
board.cache_hierarchy.ruby_system.L1Cache_Controller.S.Load |    12600874     22.53%     22.53% |     6654552     11.90%     34.43% |     5197173      9.29%     43.72% |     7044879     12.60%     56.32% |     5470608      9.78%     66.10% |     4987748      8.92%     75.02% |     4612581      8.25%     83.26% |     9360496     16.74%    100.00% (Unspecified)
board.cache_hierarchy.ruby_system.L1Cache_Controller.S.Load::total     55928911                       (Unspecified)
board.cache_hierarchy.ruby_system.L1Cache_Controller.S.Ifetch |   213182964     25.07%     25.07% |    39797000      4.68%     29.75% |    44301904      5.21%     34.96% |   163017144     19.17%     54.14% |    53327483      6.27%     60.41% |    30696895      3.61%     64.02% |    57784536      6.80%     70.82% |   248134172     29.18%    100.00% (Unspecified)
board.cache_hierarchy.ruby_system.L1Cache_Controller.S.Ifetch::total    850242098                       (Unspecified)
board.cache_hierarchy.ruby_system.L1Cache_Controller.S.Store |      104542     24.58%     24.58% |       70547     16.59%     41.18% |       38667      9.09%     50.27% |       43249     10.17%     60.44% |       62532     14.71%     75.14% |       32374      7.61%     82.76% |       28301      6.66%     89.41% |       45019     10.59%    100.00% (Unspecified)
board.cache_hierarchy.ruby_system.L1Cache_Controller.S.Store::total       425231                       (Unspecified)
board.cache_hierarchy.ruby_system.L1Cache_Controller.S.Inv |      845634     12.28%     12.28% |     1121236     16.29%     28.57% |      848029     12.32%     40.89% |      834489     12.12%     53.01% |      842768     12.24%     65.26% |      813642     11.82%     77.08% |      780173     11.33%     88.41% |      797938     11.59%    100.00% (Unspecified)
board.cache_hierarchy.ruby_system.L1Cache_Controller.S.Inv::total      6883909                       (Unspecified)
board.cache_hierarchy.ruby_system.L1Cache_Controller.S.L1_Replacement |     8711866      8.71%      8.71% |     6085759      6.08%     14.79% |     5551813      5.55%     20.34% |    10543349     10.54%     30.88% |     7440454      7.44%     38.32% |     3637138      3.64%     41.96% |     6096238      6.09%     48.05% |    51959983     51.95%    100.00% (Unspecified)
board.cache_hierarchy.ruby_system.L1Cache_Controller.S.L1_Replacement::total    100026600                       (Unspecified)
board.cache_hierarchy.ruby_system.L1Cache_Controller.E.Load |    89696040     16.23%     16.23% |    20698811      3.75%     19.98% |    22506557      4.07%     24.05% |   124791618     22.58%     46.63% |    28733585      5.20%     51.83% |    16716981      3.03%     54.86% |    38143186      6.90%     61.76% |   211324091     38.24%    100.00% (Unspecified)
board.cache_hierarchy.ruby_system.L1Cache_Controller.E.Load::total    552610869                       (Unspecified)
board.cache_hierarchy.ruby_system.L1Cache_Controller.E.Store |     3078801     25.73%     25.73% |      533096      4.46%     30.19% |      439865      3.68%     33.86% |     1589809     13.29%     47.15% |      612469      5.12%     52.27% |      363574      3.04%     55.30% |     1009992      8.44%     63.75% |     4338105     36.25%    100.00% (Unspecified)
board.cache_hierarchy.ruby_system.L1Cache_Controller.E.Store::total     11965711                       (Unspecified)
board.cache_hierarchy.ruby_system.L1Cache_Controller.E.Inv |      258568     10.48%     10.48% |      376757     15.27%     25.74% |      302765     12.27%     38.01% |      306797     12.43%     50.45% |      320690     13.00%     63.44% |      295075     11.96%     75.40% |      278568     11.29%     86.69% |      328569     13.31%    100.00% (Unspecified)
board.cache_hierarchy.ruby_system.L1Cache_Controller.E.Inv::total      2467789                       (Unspecified)
board.cache_hierarchy.ruby_system.L1Cache_Controller.E.L1_Replacement |     4543178      8.96%      8.96% |     1702880      3.36%     12.31% |     1387238      2.73%     15.05% |     8206564     16.18%     31.22% |     2460378      4.85%     36.07% |     1412508      2.78%     38.86% |     3539327      6.98%     45.83% |    27478578     54.17%    100.00% (Unspecified)
board.cache_hierarchy.ruby_system.L1Cache_Controller.E.L1_Replacement::total     50730651                       (Unspecified)
board.cache_hierarchy.ruby_system.L1Cache_Controller.E.Fwd_GETX |        1447     11.60%     11.60% |        1447     11.60%     23.19% |         882      7.07%     30.26% |        1113      8.92%     39.18% |        1876     15.03%     54.22% |         885      7.09%     61.31% |        1592     12.76%     74.07% |        3236     25.93%    100.00% (Unspecified)
board.cache_hierarchy.ruby_system.L1Cache_Controller.E.Fwd_GETX::total        12478                       (Unspecified)
board.cache_hierarchy.ruby_system.L1Cache_Controller.E.Fwd_GETS |       78986     13.33%     13.33% |       87485     14.77%     28.10% |       62627     10.57%     38.68% |       76815     12.97%     51.64% |       74454     12.57%     64.21% |       70067     11.83%     76.04% |       60588     10.23%     86.27% |       81334     13.73%    100.00% (Unspecified)
board.cache_hierarchy.ruby_system.L1Cache_Controller.E.Fwd_GETS::total       592356                       (Unspecified)
board.cache_hierarchy.ruby_system.L1Cache_Controller.E.Fwd_GET_INSTR |           8     18.18%     18.18% |           4      9.09%     27.27% |           3      6.82%     34.09% |           4      9.09%     43.18% |           9     20.45%     63.64% |           9     20.45%     84.09% |           4      9.09%     93.18% |           3      6.82%    100.00% (Unspecified)
board.cache_hierarchy.ruby_system.L1Cache_Controller.E.Fwd_GET_INSTR::total           44                       (Unspecified)
board.cache_hierarchy.ruby_system.L1Cache_Controller.M.Load |   382733827     46.92%     46.92% |    27006808      3.31%     50.24% |    32475177      3.98%     54.22% |    63044479      7.73%     61.95% |    32961909      4.04%     65.99% |    18202244      2.23%     68.22% |    38890111      4.77%     72.99% |   220316133     27.01%    100.00% (Unspecified)
board.cache_hierarchy.ruby_system.L1Cache_Controller.M.Load::total    815630688                       (Unspecified)
board.cache_hierarchy.ruby_system.L1Cache_Controller.M.Store |   124038767     17.55%     17.55% |    42722296      6.04%     23.59% |    58877555      8.33%     31.92% |   105439902     14.91%     46.83% |    49094521      6.94%     53.78% |    28236395      3.99%     57.77% |    54266848      7.68%     65.45% |   244290073     34.55%    100.00% (Unspecified)
board.cache_hierarchy.ruby_system.L1Cache_Controller.M.Store::total    706966357                       (Unspecified)
board.cache_hierarchy.ruby_system.L1Cache_Controller.M.Inv |      280618     12.40%     12.40% |      359055     15.87%     28.27% |      292101     12.91%     41.19% |      275921     12.20%     53.38% |      275493     12.18%     65.56% |      243894     10.78%     76.34% |      239170     10.57%     86.91% |      296140     13.09%    100.00% (Unspecified)
board.cache_hierarchy.ruby_system.L1Cache_Controller.M.Inv::total      2262392                       (Unspecified)
board.cache_hierarchy.ruby_system.L1Cache_Controller.M.L1_Replacement |     5639116     20.65%     20.65% |     1255948      4.60%     25.25% |     1242030      4.55%     29.80% |     4702527     17.22%     47.03% |     1472632      5.39%     52.42% |      797976      2.92%     55.34% |     2117940      7.76%     63.10% |    10074579     36.90%    100.00% (Unspecified)
board.cache_hierarchy.ruby_system.L1Cache_Controller.M.L1_Replacement::total     27302748                       (Unspecified)
board.cache_hierarchy.ruby_system.L1Cache_Controller.M.Fwd_GETX |       22067     13.72%     13.72% |       31574     19.62%     33.34% |       17879     11.11%     44.45% |       20435     12.70%     57.16% |       27389     17.02%     74.18% |       13864      8.62%     82.80% |       11544      7.18%     89.97% |       16135     10.03%    100.00% (Unspecified)
board.cache_hierarchy.ruby_system.L1Cache_Controller.M.Fwd_GETX::total       160887                       (Unspecified)
board.cache_hierarchy.ruby_system.L1Cache_Controller.M.Fwd_GETS |      112718     26.27%     26.27% |       83397     19.43%     45.70% |       34524      8.05%     53.75% |       41455      9.66%     63.41% |       56946     13.27%     76.68% |       30898      7.20%     83.88% |       26906      6.27%     90.15% |       42281      9.85%    100.00% (Unspecified)
board.cache_hierarchy.ruby_system.L1Cache_Controller.M.Fwd_GETS::total       429125                       (Unspecified)
board.cache_hierarchy.ruby_system.L1Cache_Controller.IS.Inv |         114      8.84%      8.84% |         127      9.85%     18.70% |         110      8.53%     27.23% |         175     13.58%     40.81% |         130     10.09%     50.89% |         108      8.38%     59.27% |         106      8.22%     67.49% |         419     32.51%    100.00% (Unspecified)
board.cache_hierarchy.ruby_system.L1Cache_Controller.IS.Inv::total         1289                       (Unspecified)
board.cache_hierarchy.ruby_system.L1Cache_Controller.IS.L1_Replacement |         597      9.72%      9.72% |         827     13.46%     23.17% |         818     13.31%     36.48% |         755     12.29%     48.77% |         577      9.39%     58.16% |         486      7.91%     66.07% |         596      9.70%     75.77% |        1489     24.23%    100.00% (Unspecified)
board.cache_hierarchy.ruby_system.L1Cache_Controller.IS.L1_Replacement::total         6145                       (Unspecified)
board.cache_hierarchy.ruby_system.L1Cache_Controller.IS.Data_Exclusive |     7960978     12.10%     12.10% |     2701685      4.11%     16.21% |     2193376      3.33%     19.55% |    10181074     15.48%     35.03% |     3469859      5.28%     40.30% |     2142144      3.26%     43.56% |     4890149      7.44%     51.00% |    32229812     49.00%    100.00% (Unspecified)
board.cache_hierarchy.ruby_system.L1Cache_Controller.IS.Data_Exclusive::total     65769077                       (Unspecified)
board.cache_hierarchy.ruby_system.L1Cache_Controller.IS.DataS_fromL1 |      112341     11.00%     11.00% |      198665     19.45%     30.44% |      105554     10.33%     40.78% |      120070     11.75%     52.53% |      128436     12.57%     65.10% |       90790      8.89%     73.99% |       75360      7.38%     81.37% |      190372     18.63%    100.00% (Unspecified)
board.cache_hierarchy.ruby_system.L1Cache_Controller.IS.DataS_fromL1::total      1021588                       (Unspecified)
board.cache_hierarchy.ruby_system.L1Cache_Controller.IS.Data_all_Acks |     9358015      8.89%      8.89% |     6908210      6.56%     15.45% |     6235904      5.92%     21.37% |    11182802     10.62%     31.99% |     8085932      7.68%     39.67% |     4291607      4.08%     43.75% |     6742117      6.40%     50.15% |    52488979     49.85%    100.00% (Unspecified)
board.cache_hierarchy.ruby_system.L1Cache_Controller.IS.Data_all_Acks::total    105293566                       (Unspecified)
board.cache_hierarchy.ruby_system.L1Cache_Controller.IM.Inv |           3      1.94%      1.94% |           6      3.87%      5.81% |          61     39.35%     45.16% |          46     29.68%     74.84% |          14      9.03%     83.87% |           9      5.81%     89.68% |          12      7.74%     97.42% |           4      2.58%    100.00% (Unspecified)
board.cache_hierarchy.ruby_system.L1Cache_Controller.IM.Inv::total          155                       (Unspecified)
board.cache_hierarchy.ruby_system.L1Cache_Controller.IM.L1_Replacement |         107     11.02%     11.02% |         185     19.05%     30.07% |          77      7.93%     38.00% |         125     12.87%     50.88% |          85      8.75%     59.63% |          67      6.90%     66.53% |          75      7.72%     74.25% |         250     25.75%    100.00% (Unspecified)
board.cache_hierarchy.ruby_system.L1Cache_Controller.IM.L1_Replacement::total          971                       (Unspecified)
board.cache_hierarchy.ruby_system.L1Cache_Controller.IM.Data |        5939     20.09%     20.09% |        2610      8.83%     28.93% |        4233     14.32%     43.25% |        3036     10.27%     53.52% |        4135     13.99%     67.51% |        3089     10.45%     77.96% |        2345      7.93%     85.90% |        4168     14.10%    100.00% (Unspecified)
board.cache_hierarchy.ruby_system.L1Cache_Controller.IM.Data::total        29555                       (Unspecified)
board.cache_hierarchy.ruby_system.L1Cache_Controller.IM.Data_all_Acks |     2865476     16.15%     16.15% |     1124198      6.34%     22.49% |     1104531      6.23%     28.71% |     3405317     19.19%     47.91% |     1154354      6.51%     54.42% |      688582      3.88%     58.30% |     1355991      7.64%     65.94% |     6042638     34.06%    100.00% (Unspecified)
board.cache_hierarchy.ruby_system.L1Cache_Controller.IM.Data_all_Acks::total     17741087                       (Unspecified)
board.cache_hierarchy.ruby_system.L1Cache_Controller.IM.Ack |           7     12.96%     12.96% |           6     11.11%     24.07% |           2      3.70%     27.78% |          11     20.37%     48.15% |           7     12.96%     61.11% |          10     18.52%     79.63% |           4      7.41%     87.04% |           7     12.96%    100.00% (Unspecified)
board.cache_hierarchy.ruby_system.L1Cache_Controller.IM.Ack::total           54                       (Unspecified)
board.cache_hierarchy.ruby_system.L1Cache_Controller.SM.Inv |         239      3.86%      3.86% |         420      6.78%     10.64% |         760     12.28%     22.92% |        1073     17.33%     40.25% |        1030     16.64%     56.89% |         964     15.57%     72.46% |         910     14.70%     87.16% |         795     12.84%    100.00% (Unspecified)
board.cache_hierarchy.ruby_system.L1Cache_Controller.SM.Inv::total         6191                       (Unspecified)
board.cache_hierarchy.ruby_system.L1Cache_Controller.SM.L1_Replacement |           2     50.00%     50.00% |           0      0.00%     50.00% |           0      0.00%     50.00% |           0      0.00%     50.00% |           1     25.00%     75.00% |           1     25.00%    100.00% |           0      0.00%    100.00% |           0      0.00%    100.00% (Unspecified)
board.cache_hierarchy.ruby_system.L1Cache_Controller.SM.L1_Replacement::total            4                       (Unspecified)
board.cache_hierarchy.ruby_system.L1Cache_Controller.SM.Ack |      425269     47.34%     47.34% |       93766     10.44%     57.78% |       62881      7.00%     64.78% |       65530      7.29%     72.07% |       82361      9.17%     81.24% |       51596      5.74%     86.98% |       50249      5.59%     92.57% |       66706      7.43%    100.00% (Unspecified)
board.cache_hierarchy.ruby_system.L1Cache_Controller.SM.Ack::total       898358                       (Unspecified)
board.cache_hierarchy.ruby_system.L1Cache_Controller.SM.Ack_all |      110242     24.57%     24.57% |       72737     16.21%     40.79% |       42140      9.39%     50.18% |       45212     10.08%     60.26% |       65637     14.63%     74.89% |       34499      7.69%     82.58% |       29736      6.63%     89.21% |       48392     10.79%    100.00% (Unspecified)
board.cache_hierarchy.ruby_system.L1Cache_Controller.SM.Ack_all::total       448595                       (Unspecified)
board.cache_hierarchy.ruby_system.L1Cache_Controller.IS_I.Data_Exclusive |          10      8.62%      8.62% |          19     16.38%     25.00% |           7      6.03%     31.03% |          28     24.14%     55.17% |          17     14.66%     69.83% |          13     11.21%     81.03% |           9      7.76%     88.79% |          13     11.21%    100.00% (Unspecified)
board.cache_hierarchy.ruby_system.L1Cache_Controller.IS_I.Data_Exclusive::total          116                       (Unspecified)
board.cache_hierarchy.ruby_system.L1Cache_Controller.IS_I.DataS_fromL1 |           3      4.92%      4.92% |          11     18.03%     22.95% |           9     14.75%     37.70% |          21     34.43%     72.13% |           0      0.00%     72.13% |          16     26.23%     98.36% |           1      1.64%    100.00% |           0      0.00%    100.00% (Unspecified)
board.cache_hierarchy.ruby_system.L1Cache_Controller.IS_I.DataS_fromL1::total           61                       (Unspecified)
board.cache_hierarchy.ruby_system.L1Cache_Controller.IS_I.Data_all_Acks |         101      9.08%      9.08% |          97      8.72%     17.81% |          94      8.45%     26.26% |         126     11.33%     37.59% |         113     10.16%     47.75% |          79      7.10%     54.86% |          96      8.63%     63.49% |         406     36.51%    100.00% (Unspecified)
board.cache_hierarchy.ruby_system.L1Cache_Controller.IS_I.Data_all_Acks::total         1112                       (Unspecified)
board.cache_hierarchy.ruby_system.L1Cache_Controller.M_I.Load |        4917      9.82%      9.82% |        1758      3.51%     13.33% |        1164      2.32%     15.65% |        5346     10.68%     26.33% |        1961      3.92%     30.25% |        1260      2.52%     32.76% |        4744      9.47%     42.24% |       28925     57.76%    100.00% (Unspecified)
board.cache_hierarchy.ruby_system.L1Cache_Controller.M_I.Load::total        50075                       (Unspecified)
board.cache_hierarchy.ruby_system.L1Cache_Controller.M_I.Ifetch |         106     30.72%     30.72% |           9      2.61%     33.33% |          54     15.65%     48.99% |          41     11.88%     60.87% |          31      8.99%     69.86% |          16      4.64%     74.49% |          27      7.83%     82.32% |          61     17.68%    100.00% (Unspecified)
board.cache_hierarchy.ruby_system.L1Cache_Controller.M_I.Ifetch::total          345                       (Unspecified)
board.cache_hierarchy.ruby_system.L1Cache_Controller.M_I.Store |        1177     12.75%     12.75% |         360      3.90%     16.65% |         410      4.44%     21.09% |        1202     13.02%     34.10% |         400      4.33%     38.43% |         253      2.74%     41.17% |        1048     11.35%     52.52% |        4384     47.48%    100.00% (Unspecified)
board.cache_hierarchy.ruby_system.L1Cache_Controller.M_I.Store::total         9234                       (Unspecified)
board.cache_hierarchy.ruby_system.L1Cache_Controller.M_I.Inv |          92     10.30%     10.30% |         125     14.00%     24.30% |         105     11.76%     36.06% |         118     13.21%     49.27% |         116     12.99%     62.26% |         100     11.20%     73.46% |          98     10.97%     84.43% |         139     15.57%    100.00% (Unspecified)
board.cache_hierarchy.ruby_system.L1Cache_Controller.M_I.Inv::total          893                       (Unspecified)
board.cache_hierarchy.ruby_system.L1Cache_Controller.M_I.Fwd_GETX |           7     30.43%     30.43% |           1      4.35%     34.78% |           4     17.39%     52.17% |           2      8.70%     60.87% |           4     17.39%     78.26% |           0      0.00%     78.26% |           1      4.35%     82.61% |           4     17.39%    100.00% (Unspecified)
board.cache_hierarchy.ruby_system.L1Cache_Controller.M_I.Fwd_GETX::total           23                       (Unspecified)
board.cache_hierarchy.ruby_system.L1Cache_Controller.M_I.Fwd_GETS |          17     13.71%     13.71% |          11      8.87%     22.58% |          12      9.68%     32.26% |          23     18.55%     50.81% |          18     14.52%     65.32% |          13     10.48%     75.81% |           8      6.45%     82.26% |          22     17.74%    100.00% (Unspecified)
board.cache_hierarchy.ruby_system.L1Cache_Controller.M_I.Fwd_GETS::total          124                       (Unspecified)
board.cache_hierarchy.ruby_system.L1Cache_Controller.M_I.WB_Ack |    10182178     13.05%     13.05% |     2958691      3.79%     16.84% |     2629147      3.37%     20.21% |    12908948     16.54%     36.75% |     3932872      5.04%     41.79% |     2210371      2.83%     44.63% |     5657160      7.25%     51.88% |    37552992     48.12%    100.00% (Unspecified)
board.cache_hierarchy.ruby_system.L1Cache_Controller.M_I.WB_Ack::total     78032359                       (Unspecified)
board.cache_hierarchy.ruby_system.L1Cache_Controller.SINK_WB_ACK.Load |           0      0.00%      0.00% |           0      0.00%      0.00% |           0      0.00%      0.00% |           1     50.00%     50.00% |           0      0.00%     50.00% |           0      0.00%     50.00% |           0      0.00%     50.00% |           1     50.00%    100.00% (Unspecified)
board.cache_hierarchy.ruby_system.L1Cache_Controller.SINK_WB_ACK.Load::total            2                       (Unspecified)
board.cache_hierarchy.ruby_system.L1Cache_Controller.SINK_WB_ACK.WB_Ack |         116     11.15%     11.15% |         137     13.17%     24.33% |         121     11.63%     35.96% |         143     13.75%     49.71% |         138     13.27%     62.98% |         113     10.87%     73.85% |         107     10.29%     84.13% |         165     15.87%    100.00% (Unspecified)
board.cache_hierarchy.ruby_system.L1Cache_Controller.SINK_WB_ACK.WB_Ack::total         1040                       (Unspecified)
board.cache_hierarchy.ruby_system.L2Cache_Controller.L1_GET_INSTR    101944276      0.00%      0.00% (Unspecified)
board.cache_hierarchy.ruby_system.L2Cache_Controller.L1_GETS     70224557      0.00%      0.00% (Unspecified)
board.cache_hierarchy.ruby_system.L2Cache_Controller.L1_GETX     17797869      0.00%      0.00% (Unspecified)
board.cache_hierarchy.ruby_system.L2Cache_Controller.L1_UPGRADE       430214      0.00%      0.00% (Unspecified)
board.cache_hierarchy.ruby_system.L2Cache_Controller.L1_PUTX     78032621      0.00%      0.00% (Unspecified)
board.cache_hierarchy.ruby_system.L2Cache_Controller.L1_PUTX_old         1758      0.00%      0.00% (Unspecified)
board.cache_hierarchy.ruby_system.L2Cache_Controller.L2_Replacement     15247094      0.00%      0.00% (Unspecified)
board.cache_hierarchy.ruby_system.L2Cache_Controller.L2_Replacement_clean     46191161      0.00%      0.00% (Unspecified)
board.cache_hierarchy.ruby_system.L2Cache_Controller.Mem_Data     61450155      0.00%      0.00% (Unspecified)
board.cache_hierarchy.ruby_system.L2Cache_Controller.Mem_Ack     61446059      0.00%      0.00% (Unspecified)
board.cache_hierarchy.ruby_system.L2Cache_Controller.WB_Data      2691978      0.00%      0.00% (Unspecified)
board.cache_hierarchy.ruby_system.L2Cache_Controller.WB_Data_clean       592956      0.00%      0.00% (Unspecified)
board.cache_hierarchy.ruby_system.L2Cache_Controller.Ack      7082606      0.00%      0.00% (Unspecified)
board.cache_hierarchy.ruby_system.L2Cache_Controller.Ack_all     26285182      0.00%      0.00% (Unspecified)
board.cache_hierarchy.ruby_system.L2Cache_Controller.Unblock      1021649      0.00%      0.00% (Unspecified)
board.cache_hierarchy.ruby_system.L2Cache_Controller.Exclusive_Unblock     83958875      0.00%      0.00% (Unspecified)
board.cache_hierarchy.ruby_system.L2Cache_Controller.MEM_Inv        15610      0.00%      0.00% (Unspecified)
board.cache_hierarchy.ruby_system.L2Cache_Controller.NP.L1_GET_INSTR     23194097      0.00%      0.00% (Unspecified)
board.cache_hierarchy.ruby_system.L2Cache_Controller.NP.L1_GETS     26755152      0.00%      0.00% (Unspecified)
board.cache_hierarchy.ruby_system.L2Cache_Controller.NP.L1_GETX     11500907      0.00%      0.00% (Unspecified)
board.cache_hierarchy.ruby_system.L2Cache_Controller.NP.L1_PUTX_old          844      0.00%      0.00% (Unspecified)
board.cache_hierarchy.ruby_system.L2Cache_Controller.SS.L1_GET_INSTR     78496365      0.00%      0.00% (Unspecified)
board.cache_hierarchy.ruby_system.L2Cache_Controller.SS.L1_GETS      3244519      0.00%      0.00% (Unspecified)
board.cache_hierarchy.ruby_system.L2Cache_Controller.SS.L1_GETX        29623      0.00%      0.00% (Unspecified)
board.cache_hierarchy.ruby_system.L2Cache_Controller.SS.L1_UPGRADE       419040      0.00%      0.00% (Unspecified)
board.cache_hierarchy.ruby_system.L2Cache_Controller.SS.L1_PUTX          122      0.00%      0.00% (Unspecified)
board.cache_hierarchy.ruby_system.L2Cache_Controller.SS.L2_Replacement        52580      0.00%      0.00% (Unspecified)
board.cache_hierarchy.ruby_system.L2Cache_Controller.SS.L2_Replacement_clean     23764805      0.00%      0.00% (Unspecified)
board.cache_hierarchy.ruby_system.L2Cache_Controller.SS.MEM_Inv            8      0.00%      0.00% (Unspecified)
board.cache_hierarchy.ruby_system.L2Cache_Controller.M.L1_GET_INSTR          955      0.00%      0.00% (Unspecified)
board.cache_hierarchy.ruby_system.L2Cache_Controller.M.L1_GETS     39065905      0.00%      0.00% (Unspecified)
board.cache_hierarchy.ruby_system.L2Cache_Controller.M.L1_GETX      6066724      0.00%      0.00% (Unspecified)
board.cache_hierarchy.ruby_system.L2Cache_Controller.M.L2_Replacement     14862650      0.00%      0.00% (Unspecified)
board.cache_hierarchy.ruby_system.L2Cache_Controller.M.L2_Replacement_clean     18030030      0.00%      0.00% (Unspecified)
board.cache_hierarchy.ruby_system.L2Cache_Controller.M.MEM_Inv         4913      0.00%      0.00% (Unspecified)
board.cache_hierarchy.ruby_system.L2Cache_Controller.MT.L1_GET_INSTR           44      0.00%      0.00% (Unspecified)
board.cache_hierarchy.ruby_system.L2Cache_Controller.MT.L1_GETS      1021605      0.00%      0.00% (Unspecified)
board.cache_hierarchy.ruby_system.L2Cache_Controller.MT.L1_GETX       173388      0.00%      0.00% (Unspecified)
board.cache_hierarchy.ruby_system.L2Cache_Controller.MT.L1_PUTX     78032359      0.00%      0.00% (Unspecified)
board.cache_hierarchy.ruby_system.L2Cache_Controller.MT.L1_PUTX_old           23      0.00%      0.00% (Unspecified)
board.cache_hierarchy.ruby_system.L2Cache_Controller.MT.L2_Replacement       331864      0.00%      0.00% (Unspecified)
board.cache_hierarchy.ruby_system.L2Cache_Controller.MT.L2_Replacement_clean      4396326      0.00%      0.00% (Unspecified)
board.cache_hierarchy.ruby_system.L2Cache_Controller.MT.MEM_Inv         2884      0.00%      0.00% (Unspecified)
board.cache_hierarchy.ruby_system.L2Cache_Controller.M_I.L1_GET_INSTR         7152      0.00%      0.00% (Unspecified)
board.cache_hierarchy.ruby_system.L2Cache_Controller.M_I.L1_GETS        16728      0.00%      0.00% (Unspecified)
board.cache_hierarchy.ruby_system.L2Cache_Controller.M_I.L1_GETX         6888      0.00%      0.00% (Unspecified)
board.cache_hierarchy.ruby_system.L2Cache_Controller.M_I.L1_PUTX_old           49      0.00%      0.00% (Unspecified)
board.cache_hierarchy.ruby_system.L2Cache_Controller.M_I.Mem_Ack     61446059      0.00%      0.00% (Unspecified)
board.cache_hierarchy.ruby_system.L2Cache_Controller.M_I.MEM_Inv         4913      0.00%      0.00% (Unspecified)
board.cache_hierarchy.ruby_system.L2Cache_Controller.MT_I.L1_GETS            2      0.00%      0.00% (Unspecified)
board.cache_hierarchy.ruby_system.L2Cache_Controller.MT_I.L1_GETX            2      0.00%      0.00% (Unspecified)
board.cache_hierarchy.ruby_system.L2Cache_Controller.MT_I.L1_PUTX_old           88      0.00%      0.00% (Unspecified)
board.cache_hierarchy.ruby_system.L2Cache_Controller.MT_I.WB_Data       295579      0.00%      0.00% (Unspecified)
board.cache_hierarchy.ruby_system.L2Cache_Controller.MT_I.WB_Data_clean           13      0.00%      0.00% (Unspecified)
board.cache_hierarchy.ruby_system.L2Cache_Controller.MT_I.Ack_all        39156      0.00%      0.00% (Unspecified)
board.cache_hierarchy.ruby_system.L2Cache_Controller.MT_I.MEM_Inv         2884      0.00%      0.00% (Unspecified)
board.cache_hierarchy.ruby_system.L2Cache_Controller.MCT_I.L1_GETS           27      0.00%      0.00% (Unspecified)
board.cache_hierarchy.ruby_system.L2Cache_Controller.MCT_I.L1_GETX            2      0.00%      0.00% (Unspecified)
board.cache_hierarchy.ruby_system.L2Cache_Controller.MCT_I.L1_PUTX_old          754      0.00%      0.00% (Unspecified)
board.cache_hierarchy.ruby_system.L2Cache_Controller.MCT_I.WB_Data      1967228      0.00%      0.00% (Unspecified)
board.cache_hierarchy.ruby_system.L2Cache_Controller.MCT_I.WB_Data_clean          465      0.00%      0.00% (Unspecified)
board.cache_hierarchy.ruby_system.L2Cache_Controller.MCT_I.Ack_all      2428633      0.00%      0.00% (Unspecified)
board.cache_hierarchy.ruby_system.L2Cache_Controller.I_I.L1_GET_INSTR         1013      0.00%      0.00% (Unspecified)
board.cache_hierarchy.ruby_system.L2Cache_Controller.I_I.L1_GETS           94      0.00%      0.00% (Unspecified)
board.cache_hierarchy.ruby_system.L2Cache_Controller.I_I.L1_GETX            2      0.00%      0.00% (Unspecified)
board.cache_hierarchy.ruby_system.L2Cache_Controller.I_I.Ack      7005478      0.00%      0.00% (Unspecified)
board.cache_hierarchy.ruby_system.L2Cache_Controller.I_I.Ack_all     23764805      0.00%      0.00% (Unspecified)
board.cache_hierarchy.ruby_system.L2Cache_Controller.S_I.L1_GETS           20      0.00%      0.00% (Unspecified)
board.cache_hierarchy.ruby_system.L2Cache_Controller.S_I.L1_GETX            2      0.00%      0.00% (Unspecified)
board.cache_hierarchy.ruby_system.L2Cache_Controller.S_I.Ack        77128      0.00%      0.00% (Unspecified)
board.cache_hierarchy.ruby_system.L2Cache_Controller.S_I.Ack_all        52588      0.00%      0.00% (Unspecified)
board.cache_hierarchy.ruby_system.L2Cache_Controller.S_I.MEM_Inv            8      0.00%      0.00% (Unspecified)
board.cache_hierarchy.ruby_system.L2Cache_Controller.ISS.L1_GETS        51864      0.00%      0.00% (Unspecified)
board.cache_hierarchy.ruby_system.L2Cache_Controller.ISS.L1_GETX           55      0.00%      0.00% (Unspecified)
board.cache_hierarchy.ruby_system.L2Cache_Controller.ISS.Mem_Data     26703288      0.00%      0.00% (Unspecified)
board.cache_hierarchy.ruby_system.L2Cache_Controller.IS.L1_GET_INSTR       244650      0.00%      0.00% (Unspecified)
board.cache_hierarchy.ruby_system.L2Cache_Controller.IS.L1_GETS        10365      0.00%      0.00% (Unspecified)
board.cache_hierarchy.ruby_system.L2Cache_Controller.IS.Mem_Data     23245960      0.00%      0.00% (Unspecified)
board.cache_hierarchy.ruby_system.L2Cache_Controller.IM.L1_GETS           67      0.00%      0.00% (Unspecified)
board.cache_hierarchy.ruby_system.L2Cache_Controller.IM.L1_GETX         4394      0.00%      0.00% (Unspecified)
board.cache_hierarchy.ruby_system.L2Cache_Controller.IM.Mem_Data     11500907      0.00%      0.00% (Unspecified)
board.cache_hierarchy.ruby_system.L2Cache_Controller.SS_MB.L1_GETS        26249      0.00%      0.00% (Unspecified)
board.cache_hierarchy.ruby_system.L2Cache_Controller.SS_MB.L1_GETX         2203      0.00%      0.00% (Unspecified)
board.cache_hierarchy.ruby_system.L2Cache_Controller.SS_MB.L1_UPGRADE         6188      0.00%      0.00% (Unspecified)
board.cache_hierarchy.ruby_system.L2Cache_Controller.SS_MB.Exclusive_Unblock       448663      0.00%      0.00% (Unspecified)
board.cache_hierarchy.ruby_system.L2Cache_Controller.MT_MB.L1_GETS        20472      0.00%      0.00% (Unspecified)
board.cache_hierarchy.ruby_system.L2Cache_Controller.MT_MB.L1_GETX        12384      0.00%      0.00% (Unspecified)
board.cache_hierarchy.ruby_system.L2Cache_Controller.MT_MB.L1_PUTX           23      0.00%      0.00% (Unspecified)
board.cache_hierarchy.ruby_system.L2Cache_Controller.MT_MB.Exclusive_Unblock     83510212      0.00%      0.00% (Unspecified)
board.cache_hierarchy.ruby_system.L2Cache_Controller.MT_IIB.L1_GETS        11083      0.00%      0.00% (Unspecified)
board.cache_hierarchy.ruby_system.L2Cache_Controller.MT_IIB.L1_GETX         1179      0.00%      0.00% (Unspecified)
board.cache_hierarchy.ruby_system.L2Cache_Controller.MT_IIB.L1_UPGRADE            2      0.00%      0.00% (Unspecified)
board.cache_hierarchy.ruby_system.L2Cache_Controller.MT_IIB.L1_PUTX          115      0.00%      0.00% (Unspecified)
board.cache_hierarchy.ruby_system.L2Cache_Controller.MT_IIB.WB_Data       425995      0.00%      0.00% (Unspecified)
board.cache_hierarchy.ruby_system.L2Cache_Controller.MT_IIB.WB_Data_clean       589261      0.00%      0.00% (Unspecified)
board.cache_hierarchy.ruby_system.L2Cache_Controller.MT_IIB.Unblock         6393      0.00%      0.00% (Unspecified)
board.cache_hierarchy.ruby_system.L2Cache_Controller.MT_IB.L1_UPGRADE            1      0.00%      0.00% (Unspecified)
board.cache_hierarchy.ruby_system.L2Cache_Controller.MT_IB.WB_Data         3176      0.00%      0.00% (Unspecified)
board.cache_hierarchy.ruby_system.L2Cache_Controller.MT_IB.WB_Data_clean         3217      0.00%      0.00% (Unspecified)
board.cache_hierarchy.ruby_system.L2Cache_Controller.MT_SB.L1_GETS          405      0.00%      0.00% (Unspecified)
board.cache_hierarchy.ruby_system.L2Cache_Controller.MT_SB.L1_GETX          116      0.00%      0.00% (Unspecified)
board.cache_hierarchy.ruby_system.L2Cache_Controller.MT_SB.L1_UPGRADE         4983      0.00%      0.00% (Unspecified)
board.cache_hierarchy.ruby_system.L2Cache_Controller.MT_SB.L1_PUTX            2      0.00%      0.00% (Unspecified)
board.cache_hierarchy.ruby_system.L2Cache_Controller.MT_SB.Unblock      1015256      0.00%      0.00% (Unspecified)
board.cache_hierarchy.ruby_system.RequestType.LD.latency_hist_seqr::bucket_size          512                       (Unspecified)
board.cache_hierarchy.ruby_system.RequestType.LD.latency_hist_seqr::max_bucket         5119                       (Unspecified)
board.cache_hierarchy.ruby_system.RequestType.LD.latency_hist_seqr::samples   1494319878                       (Unspecified)
board.cache_hierarchy.ruby_system.RequestType.LD.latency_hist_seqr::mean     5.797596                       (Unspecified)
board.cache_hierarchy.ruby_system.RequestType.LD.latency_hist_seqr::gmean     1.192852                       (Unspecified)
board.cache_hierarchy.ruby_system.RequestType.LD.latency_hist_seqr::stdev    37.210043                       (Unspecified)
board.cache_hierarchy.ruby_system.RequestType.LD.latency_hist_seqr |  1492957613     99.91%     99.91% |     1249612      0.08%     99.99% |      106390      0.01%    100.00% |        5800      0.00%    100.00% |         400      0.00%    100.00% |          59      0.00%    100.00% |           4      0.00%    100.00% |           0      0.00%    100.00% |           0      0.00%    100.00% |           0      0.00%    100.00% (Unspecified)
board.cache_hierarchy.ruby_system.RequestType.LD.latency_hist_seqr::total   1494319878                       (Unspecified)
board.cache_hierarchy.ruby_system.RequestType.LD.hit_latency_hist_seqr::bucket_size            1                       (Unspecified)
board.cache_hierarchy.ruby_system.RequestType.LD.hit_latency_hist_seqr::max_bucket            9                       (Unspecified)
board.cache_hierarchy.ruby_system.RequestType.LD.hit_latency_hist_seqr::samples   1424170468                       (Unspecified)
board.cache_hierarchy.ruby_system.RequestType.LD.hit_latency_hist_seqr::mean     1.000901                       (Unspecified)
board.cache_hierarchy.ruby_system.RequestType.LD.hit_latency_hist_seqr::gmean     1.000625                       (Unspecified)
board.cache_hierarchy.ruby_system.RequestType.LD.hit_latency_hist_seqr::stdev     0.030026                       (Unspecified)
board.cache_hierarchy.ruby_system.RequestType.LD.hit_latency_hist_seqr |           0      0.00%      0.00% |  1422887442     99.91%     99.91% |     1282318      0.09%    100.00% |         707      0.00%    100.00% |           1      0.00%    100.00% |           0      0.00%    100.00% |           0      0.00%    100.00% |           0      0.00%    100.00% |           0      0.00%    100.00% |           0      0.00%    100.00% (Unspecified)
board.cache_hierarchy.ruby_system.RequestType.LD.hit_latency_hist_seqr::total   1424170468                       (Unspecified)
board.cache_hierarchy.ruby_system.RequestType.LD.miss_latency_hist_seqr::bucket_size          512                       (Unspecified)
board.cache_hierarchy.ruby_system.RequestType.LD.miss_latency_hist_seqr::max_bucket         5119                       (Unspecified)
board.cache_hierarchy.ruby_system.RequestType.LD.miss_latency_hist_seqr::samples     70149410                       (Unspecified)
board.cache_hierarchy.ruby_system.RequestType.LD.miss_latency_hist_seqr::mean   103.179904                       (Unspecified)
board.cache_hierarchy.ruby_system.RequestType.LD.miss_latency_hist_seqr::gmean    42.260373                       (Unspecified)
board.cache_hierarchy.ruby_system.RequestType.LD.miss_latency_hist_seqr::stdev   139.799775                       (Unspecified)
board.cache_hierarchy.ruby_system.RequestType.LD.miss_latency_hist_seqr |    68787145     98.06%     98.06% |     1249612      1.78%     99.84% |      106390      0.15%     99.99% |        5800      0.01%    100.00% |         400      0.00%    100.00% |          59      0.00%    100.00% |           4      0.00%    100.00% |           0      0.00%    100.00% |           0      0.00%    100.00% |           0      0.00%    100.00% (Unspecified)
board.cache_hierarchy.ruby_system.RequestType.LD.miss_latency_hist_seqr::total     70149410                       (Unspecified)
board.cache_hierarchy.ruby_system.RequestType.ST.latency_hist_seqr::bucket_size          512                       (Unspecified)
board.cache_hierarchy.ruby_system.RequestType.ST.latency_hist_seqr::max_bucket         5119                       (Unspecified)
board.cache_hierarchy.ruby_system.RequestType.ST.latency_hist_seqr::samples    693037365                       (Unspecified)
board.cache_hierarchy.ruby_system.RequestType.ST.latency_hist_seqr::mean     4.259832                       (Unspecified)
board.cache_hierarchy.ruby_system.RequestType.ST.latency_hist_seqr::gmean     1.113148                       (Unspecified)
board.cache_hierarchy.ruby_system.RequestType.ST.latency_hist_seqr::stdev    30.192507                       (Unspecified)
board.cache_hierarchy.ruby_system.RequestType.ST.latency_hist_seqr |   692630943     99.94%     99.94% |      373616      0.05%    100.00% |       31327      0.00%    100.00% |        1363      0.00%    100.00% |          91      0.00%    100.00% |          22      0.00%    100.00% |           3      0.00%    100.00% |           0      0.00%    100.00% |           0      0.00%    100.00% |           0      0.00%    100.00% (Unspecified)
board.cache_hierarchy.ruby_system.RequestType.ST.latency_hist_seqr::total    693037365                       (Unspecified)
board.cache_hierarchy.ruby_system.RequestType.ST.hit_latency_hist_seqr::bucket_size          512                       (Unspecified)
board.cache_hierarchy.ruby_system.RequestType.ST.hit_latency_hist_seqr::max_bucket         5119                       (Unspecified)
board.cache_hierarchy.ruby_system.RequestType.ST.hit_latency_hist_seqr::samples    677995954                       (Unspecified)
board.cache_hierarchy.ruby_system.RequestType.ST.hit_latency_hist_seqr::mean     1.044750                       (Unspecified)
board.cache_hierarchy.ruby_system.RequestType.ST.hit_latency_hist_seqr::gmean     1.011104                       (Unspecified)
board.cache_hierarchy.ruby_system.RequestType.ST.hit_latency_hist_seqr::stdev     2.949822                       (Unspecified)
board.cache_hierarchy.ruby_system.RequestType.ST.hit_latency_hist_seqr |   677992578    100.00%    100.00% |        3021      0.00%    100.00% |         336      0.00%    100.00% |          14      0.00%    100.00% |           4      0.00%    100.00% |           0      0.00%    100.00% |           1      0.00%    100.00% |           0      0.00%    100.00% |           0      0.00%    100.00% |           0      0.00%    100.00% (Unspecified)
board.cache_hierarchy.ruby_system.RequestType.ST.hit_latency_hist_seqr::total    677995954                       (Unspecified)
board.cache_hierarchy.ruby_system.RequestType.ST.miss_latency_hist_seqr::bucket_size          512                       (Unspecified)
board.cache_hierarchy.ruby_system.RequestType.ST.miss_latency_hist_seqr::max_bucket         5119                       (Unspecified)
board.cache_hierarchy.ruby_system.RequestType.ST.miss_latency_hist_seqr::samples     15041411                       (Unspecified)
board.cache_hierarchy.ruby_system.RequestType.ST.miss_latency_hist_seqr::mean   149.180582                       (Unspecified)
board.cache_hierarchy.ruby_system.RequestType.ST.miss_latency_hist_seqr::gmean    84.872127                       (Unspecified)
board.cache_hierarchy.ruby_system.RequestType.ST.miss_latency_hist_seqr::stdev   141.920686                       (Unspecified)
board.cache_hierarchy.ruby_system.RequestType.ST.miss_latency_hist_seqr |    14638365     97.32%     97.32% |      370595      2.46%     99.78% |       30991      0.21%     99.99% |        1349      0.01%    100.00% |          87      0.00%    100.00% |          22      0.00%    100.00% |           2      0.00%    100.00% |           0      0.00%    100.00% |           0      0.00%    100.00% |           0      0.00%    100.00% (Unspecified)
board.cache_hierarchy.ruby_system.RequestType.ST.miss_latency_hist_seqr::total     15041411                       (Unspecified)
board.cache_hierarchy.ruby_system.RequestType.IFETCH.latency_hist_seqr::bucket_size          512                       (Unspecified)
board.cache_hierarchy.ruby_system.RequestType.IFETCH.latency_hist_seqr::max_bucket         5119                       (Unspecified)
board.cache_hierarchy.ruby_system.RequestType.IFETCH.latency_hist_seqr::samples    952178208                       (Unspecified)
board.cache_hierarchy.ruby_system.RequestType.IFETCH.latency_hist_seqr::mean     7.620152                       (Unspecified)
board.cache_hierarchy.ruby_system.RequestType.IFETCH.latency_hist_seqr::gmean     1.411324                       (Unspecified)
board.cache_hierarchy.ruby_system.RequestType.IFETCH.latency_hist_seqr::stdev    40.816710                       (Unspecified)
board.cache_hierarchy.ruby_system.RequestType.IFETCH.latency_hist_seqr |   951307111     99.91%     99.91% |      776019      0.08%     99.99% |       90680      0.01%    100.00% |        3886      0.00%    100.00% |         446      0.00%    100.00% |          59      0.00%    100.00% |           7      0.00%    100.00% |           0      0.00%    100.00% |           0      0.00%    100.00% |           0      0.00%    100.00% (Unspecified)
board.cache_hierarchy.ruby_system.RequestType.IFETCH.latency_hist_seqr::total    952178208                       (Unspecified)
board.cache_hierarchy.ruby_system.RequestType.IFETCH.hit_latency_hist_seqr::bucket_size            1                       (Unspecified)
board.cache_hierarchy.ruby_system.RequestType.IFETCH.hit_latency_hist_seqr::max_bucket            9                       (Unspecified)
board.cache_hierarchy.ruby_system.RequestType.IFETCH.hit_latency_hist_seqr::samples    850242098                       (Unspecified)
board.cache_hierarchy.ruby_system.RequestType.IFETCH.hit_latency_hist_seqr::mean     1.000008                       (Unspecified)
board.cache_hierarchy.ruby_system.RequestType.IFETCH.hit_latency_hist_seqr::gmean     1.000006                       (Unspecified)
board.cache_hierarchy.ruby_system.RequestType.IFETCH.hit_latency_hist_seqr::stdev     0.002852                       (Unspecified)
board.cache_hierarchy.ruby_system.RequestType.IFETCH.hit_latency_hist_seqr |           0      0.00%      0.00% |   850235202    100.00%    100.00% |        6889      0.00%    100.00% |           7      0.00%    100.00% |           0      0.00%    100.00% |           0      0.00%    100.00% |           0      0.00%    100.00% |           0      0.00%    100.00% |           0      0.00%    100.00% |           0      0.00%    100.00% (Unspecified)
board.cache_hierarchy.ruby_system.RequestType.IFETCH.hit_latency_hist_seqr::total    850242098                       (Unspecified)
board.cache_hierarchy.ruby_system.RequestType.IFETCH.miss_latency_hist_seqr::bucket_size          512                       (Unspecified)
board.cache_hierarchy.ruby_system.RequestType.IFETCH.miss_latency_hist_seqr::max_bucket         5119                       (Unspecified)
board.cache_hierarchy.ruby_system.RequestType.IFETCH.miss_latency_hist_seqr::samples    101936110                       (Unspecified)
board.cache_hierarchy.ruby_system.RequestType.IFETCH.miss_latency_hist_seqr::mean    62.838315                       (Unspecified)
board.cache_hierarchy.ruby_system.RequestType.IFETCH.miss_latency_hist_seqr::gmean    24.982294                       (Unspecified)
board.cache_hierarchy.ruby_system.RequestType.IFETCH.miss_latency_hist_seqr::stdev   110.215378                       (Unspecified)
board.cache_hierarchy.ruby_system.RequestType.IFETCH.miss_latency_hist_seqr |   101065013     99.15%     99.15% |      776019      0.76%     99.91% |       90680      0.09%    100.00% |        3886      0.00%    100.00% |         446      0.00%    100.00% |          59      0.00%    100.00% |           7      0.00%    100.00% |           0      0.00%    100.00% |           0      0.00%    100.00% |           0      0.00%    100.00% (Unspecified)
board.cache_hierarchy.ruby_system.RequestType.IFETCH.miss_latency_hist_seqr::total    101936110                       (Unspecified)
board.cache_hierarchy.ruby_system.RequestType.RMW_Read.latency_hist_seqr::bucket_size          512                       (Unspecified)
board.cache_hierarchy.ruby_system.RequestType.RMW_Read.latency_hist_seqr::max_bucket         5119                       (Unspecified)
board.cache_hierarchy.ruby_system.RequestType.RMW_Read.latency_hist_seqr::samples     30007643                       (Unspecified)
board.cache_hierarchy.ruby_system.RequestType.RMW_Read.latency_hist_seqr::mean    16.214056                       (Unspecified)
board.cache_hierarchy.ruby_system.RequestType.RMW_Read.latency_hist_seqr::gmean     1.656209                       (Unspecified)
board.cache_hierarchy.ruby_system.RequestType.RMW_Read.latency_hist_seqr::stdev    73.308802                       (Unspecified)
board.cache_hierarchy.ruby_system.RequestType.RMW_Read.latency_hist_seqr |    29754709     99.16%     99.16% |      245168      0.82%     99.97% |        6966      0.02%    100.00% |         785      0.00%    100.00% |          13      0.00%    100.00% |           2      0.00%    100.00% |           0      0.00%    100.00% |           0      0.00%    100.00% |           0      0.00%    100.00% |           0      0.00%    100.00% (Unspecified)
board.cache_hierarchy.ruby_system.RequestType.RMW_Read.latency_hist_seqr::total     30007643                       (Unspecified)
board.cache_hierarchy.ruby_system.RequestType.RMW_Read.hit_latency_hist_seqr::bucket_size          256                       (Unspecified)
board.cache_hierarchy.ruby_system.RequestType.RMW_Read.hit_latency_hist_seqr::max_bucket         2559                       (Unspecified)
board.cache_hierarchy.ruby_system.RequestType.RMW_Read.hit_latency_hist_seqr::samples     27882480                       (Unspecified)
board.cache_hierarchy.ruby_system.RequestType.RMW_Read.hit_latency_hist_seqr::mean     9.964784                       (Unspecified)
board.cache_hierarchy.ruby_system.RequestType.RMW_Read.hit_latency_hist_seqr::gmean     1.296853                       (Unspecified)
board.cache_hierarchy.ruby_system.RequestType.RMW_Read.hit_latency_hist_seqr::stdev    61.997329                       (Unspecified)
board.cache_hierarchy.ruby_system.RequestType.RMW_Read.hit_latency_hist_seqr |    27594678     98.97%     98.97% |       67125      0.24%     99.21% |      209832      0.75%     99.96% |        6210      0.02%     99.98% |         688      0.00%     99.99% |        3311      0.01%    100.00% |         632      0.00%    100.00% |           2      0.00%    100.00% |           1      0.00%    100.00% |           1      0.00%    100.00% (Unspecified)
board.cache_hierarchy.ruby_system.RequestType.RMW_Read.hit_latency_hist_seqr::total     27882480                       (Unspecified)
board.cache_hierarchy.ruby_system.RequestType.RMW_Read.miss_latency_hist_seqr::bucket_size          512                       (Unspecified)
board.cache_hierarchy.ruby_system.RequestType.RMW_Read.miss_latency_hist_seqr::max_bucket         5119                       (Unspecified)
board.cache_hierarchy.ruby_system.RequestType.RMW_Read.miss_latency_hist_seqr::samples      2125163                       (Unspecified)
board.cache_hierarchy.ruby_system.RequestType.RMW_Read.miss_latency_hist_seqr::mean    98.205505                       (Unspecified)
board.cache_hierarchy.ruby_system.RequestType.RMW_Read.miss_latency_hist_seqr::gmean    41.001283                       (Unspecified)
board.cache_hierarchy.ruby_system.RequestType.RMW_Read.miss_latency_hist_seqr::stdev   134.980602                       (Unspecified)
board.cache_hierarchy.ruby_system.RequestType.RMW_Read.miss_latency_hist_seqr |     2092906     98.48%     98.48% |       29126      1.37%     99.85% |        2967      0.14%     99.99% |         151      0.01%    100.00% |          11      0.00%    100.00% |           2      0.00%    100.00% |           0      0.00%    100.00% |           0      0.00%    100.00% |           0      0.00%    100.00% |           0      0.00%    100.00% (Unspecified)
board.cache_hierarchy.ruby_system.RequestType.RMW_Read.miss_latency_hist_seqr::total      2125163                       (Unspecified)
board.cache_hierarchy.ruby_system.RequestType.Locked_RMW_Read.latency_hist_seqr::bucket_size          512                       (Unspecified)
board.cache_hierarchy.ruby_system.RequestType.Locked_RMW_Read.latency_hist_seqr::max_bucket         5119                       (Unspecified)
board.cache_hierarchy.ruby_system.RequestType.Locked_RMW_Read.latency_hist_seqr::samples      7038369                       (Unspecified)
board.cache_hierarchy.ruby_system.RequestType.Locked_RMW_Read.latency_hist_seqr::mean    18.098753                       (Unspecified)
board.cache_hierarchy.ruby_system.RequestType.Locked_RMW_Read.latency_hist_seqr::gmean     1.771837                       (Unspecified)
board.cache_hierarchy.ruby_system.RequestType.Locked_RMW_Read.latency_hist_seqr::stdev    70.375513                       (Unspecified)
board.cache_hierarchy.ruby_system.RequestType.Locked_RMW_Read.latency_hist_seqr |     7017205     99.70%     99.70% |       18708      0.27%     99.97% |        2364      0.03%    100.00% |          83      0.00%    100.00% |           8      0.00%    100.00% |           1      0.00%    100.00% |           0      0.00%    100.00% |           0      0.00%    100.00% |           0      0.00%    100.00% |           0      0.00%    100.00% (Unspecified)
board.cache_hierarchy.ruby_system.RequestType.Locked_RMW_Read.latency_hist_seqr::total      7038369                       (Unspecified)
board.cache_hierarchy.ruby_system.RequestType.Locked_RMW_Read.hit_latency_hist_seqr::bucket_size          128                       (Unspecified)
board.cache_hierarchy.ruby_system.RequestType.Locked_RMW_Read.hit_latency_hist_seqr::max_bucket         1279                       (Unspecified)
board.cache_hierarchy.ruby_system.RequestType.Locked_RMW_Read.hit_latency_hist_seqr::samples      6015261                       (Unspecified)
board.cache_hierarchy.ruby_system.RequestType.Locked_RMW_Read.hit_latency_hist_seqr::mean     1.010973                       (Unspecified)
board.cache_hierarchy.ruby_system.RequestType.Locked_RMW_Read.hit_latency_hist_seqr::gmean     1.000351                       (Unspecified)
board.cache_hierarchy.ruby_system.RequestType.Locked_RMW_Read.hit_latency_hist_seqr::stdev     1.651892                       (Unspecified)
[...]
board.processor.cores7.core.fetch.nisnDist::5     47081850      1.45%     84.89% # Number of instructions fetched each cycle (Total) (Count)
board.processor.cores7.core.fetch.nisnDist::6     44127280      1.36%     86.26% # Number of instructions fetched each cycle (Total) (Count)
board.processor.cores7.core.fetch.nisnDist::7     35299733      1.09%     87.35% # Number of instructions fetched each cycle (Total) (Count)
board.processor.cores7.core.fetch.nisnDist::8    409889401     12.65%    100.00% # Number of instructions fetched each cycle (Total) (Count)
board.processor.cores7.core.fetch.nisnDist::overflows            0      0.00%    100.00% # Number of instructions fetched each cycle (Total) (Count)
board.processor.cores7.core.fetch.nisnDist::min_value            0                       # Number of instructions fetched each cycle (Total) (Count)
board.processor.cores7.core.fetch.nisnDist::max_value            8                       # Number of instructions fetched each cycle (Total) (Count)
board.processor.cores7.core.fetch.nisnDist::total   3239056293                       # Number of instructions fetched each cycle (Total) (Count)
board.processor.cores7.core.fetchStats0.numInsts   2174248403                       # Number of instructions fetched (thread level) (Count)
board.processor.cores7.core.fetchStats0.numOps            0                       # Number of ops (including micro ops) fetched (thread level) (Count)
board.processor.cores7.core.fetchStats0.fetchRate     0.485140                       # Number of inst fetches per cycle ((Count/Cycle))
board.processor.cores7.core.fetchStats0.numBranches    527817993                       # Number of branches fetched (Count)
board.processor.cores7.core.fetchStats0.branchRate     0.117772                       # Number of branch fetches per cycle (Ratio)
board.processor.cores7.core.fetchStats0.icacheStallCycles   1143709849                       # ICache total stall cycles (Cycle)
board.processor.cores7.core.fetchStats0.numFetchSuspends            0                       # Number of times Execute suspended instruction fetching (Count)
board.processor.cores7.core.iew.idleCycles            0                       # Number of cycles IEW is idle (Cycle)
board.processor.cores7.core.iew.squashCycles     24524699                       # Number of cycles IEW is squashing (Cycle)
board.processor.cores7.core.iew.blockCycles    563854984                       # Number of cycles IEW is blocking (Cycle)
board.processor.cores7.core.iew.unblockCycles     73760461                       # Number of cycles IEW is unblocking (Cycle)
board.processor.cores7.core.iew.dispatchedInsts   4004505012                       # Number of instructions dispatched to IQ (Count)
board.processor.cores7.core.iew.dispSquashedInsts      2864745                       # Number of squashed instructions skipped by dispatch (Count)
board.processor.cores7.core.iew.dispLoadInsts    550393885                       # Number of dispatched load instructions (Count)
board.processor.cores7.core.iew.dispStoreInsts    308735079                       # Number of dispatched store instructions (Count)
board.processor.cores7.core.iew.dispNonSpecInsts      4027060                       # Number of dispatched non-speculative instructions (Count)
board.processor.cores7.core.iew.iqFullEvents      3474044                       # Number of times the IQ has become full, causing a stall (Count)
board.processor.cores7.core.iew.lsqFullEvents     66857767                       # Number of times the LSQ has become full, causing a stall (Count)
board.processor.cores7.core.iew.memOrderViolationEvents      1015715                       # Number of memory order violations (Count)
board.processor.cores7.core.iew.predictedTakenIncorrect      6356483                       # Number of branches that were predicted taken incorrectly (Count)
board.processor.cores7.core.iew.predictedNotTakenIncorrect     18906229                       # Number of branches that were predicted not taken incorrectly (Count)
board.processor.cores7.core.iew.branchMispredicts     25262712                       # Number of branch mispredicts detected at execute (Count)
board.processor.cores7.core.iew.instsToCommit   3739363615                       # Cumulative count of insts sent to commit (Count)
board.processor.cores7.core.iew.writebackCount   3726521505                       # Cumulative count of insts written-back (Count)
board.processor.cores7.core.iew.producerInst   2629017916                       # Number of instructions producing a value (Count)
board.processor.cores7.core.iew.consumerInst   4293922850                       # Number of instructions consuming a value (Count)
board.processor.cores7.core.iew.wbRate       0.831499                       # Insts written-back per cycle ((Count/Cycle))
board.processor.cores7.core.iew.wbFanout     0.612265                       # Average fanout of values written-back ((Count/Count))
board.processor.cores7.core.interrupts.clk_domain.clock         5328                       # Clock period in ticks (Tick)
board.processor.cores7.core.lsq0.forwLoads     51359996                       # Number of loads that had data forwarded from stores (Count)
board.processor.cores7.core.lsq0.squashedLoads    115304981                       # Number of loads squashed (Count)
board.processor.cores7.core.lsq0.ignoredResponses       265081                       # Number of memory responses ignored because the instruction is squashed (Count)
board.processor.cores7.core.lsq0.memOrderViolation      1015715                       # Number of memory ordering violations (Count)
board.processor.cores7.core.lsq0.squashedStores     65028355                       # Number of stores squashed (Count)
board.processor.cores7.core.lsq0.rescheduledLoads       400604                       # Number of loads that were rescheduled (Count)
board.processor.cores7.core.lsq0.blockedByCache       175561                       # Number of times an access to memory failed due to the cache being blocked (Count)
board.processor.cores7.core.lsq0.loadToUse::samples    434770793                       # Distribution of cycle latency between the first time a load is issued and its completion (Unspecified)
board.processor.cores7.core.lsq0.loadToUse::mean    10.842191                       # Distribution of cycle latency between the first time a load is issued and its completion (Unspecified)
board.processor.cores7.core.lsq0.loadToUse::stdev    46.502884                       # Distribution of cycle latency between the first time a load is issued and its completion (Unspecified)
board.processor.cores7.core.lsq0.loadToUse::0-9    398339899     91.62%     91.62% # Distribution of cycle latency between the first time a load is issued and its completion (Unspecified)
board.processor.cores7.core.lsq0.loadToUse::10-19     14190920      3.26%     94.88% # Distribution of cycle latency between the first time a load is issued and its completion (Unspecified)
board.processor.cores7.core.lsq0.loadToUse::20-29      4627524      1.06%     95.95% # Distribution of cycle latency between the first time a load is issued and its completion (Unspecified)
board.processor.cores7.core.lsq0.loadToUse::30-39      1729098      0.40%     96.35% # Distribution of cycle latency between the first time a load is issued and its completion (Unspecified)
board.processor.cores7.core.lsq0.loadToUse::40-49      1763100      0.41%     96.75% # Distribution of cycle latency between the first time a load is issued and its completion (Unspecified)
board.processor.cores7.core.lsq0.loadToUse::50-59       572464      0.13%     96.88% # Distribution of cycle latency between the first time a load is issued and its completion (Unspecified)
board.processor.cores7.core.lsq0.loadToUse::60-69       327605      0.08%     96.96% # Distribution of cycle latency between the first time a load is issued and its completion (Unspecified)
board.processor.cores7.core.lsq0.loadToUse::70-79       177269      0.04%     97.00% # Distribution of cycle latency between the first time a load is issued and its completion (Unspecified)
board.processor.cores7.core.lsq0.loadToUse::80-89       137639      0.03%     97.03% # Distribution of cycle latency between the first time a load is issued and its completion (Unspecified)
board.processor.cores7.core.lsq0.loadToUse::90-99       110761      0.03%     97.06% # Distribution of cycle latency between the first time a load is issued and its completion (Unspecified)
board.processor.cores7.core.lsq0.loadToUse::100-109        97176      0.02%     97.08% # Distribution of cycle latency between the first time a load is issued and its completion (Unspecified)
board.processor.cores7.core.lsq0.loadToUse::110-119       119781      0.03%     97.11% # Distribution of cycle latency between the first time a load is issued and its completion (Unspecified)
board.processor.cores7.core.lsq0.loadToUse::120-129       139615      0.03%     97.14% # Distribution of cycle latency between the first time a load is issued and its completion (Unspecified)
board.processor.cores7.core.lsq0.loadToUse::130-139       295126      0.07%     97.21% # Distribution of cycle latency between the first time a load is issued and its completion (Unspecified)
board.processor.cores7.core.lsq0.loadToUse::140-149      2911778      0.67%     97.88% # Distribution of cycle latency between the first time a load is issued and its completion (Unspecified)
board.processor.cores7.core.lsq0.loadToUse::150-159      1164666      0.27%     98.14% # Distribution of cycle latency between the first time a load is issued and its completion (Unspecified)
board.processor.cores7.core.lsq0.loadToUse::160-169       764479      0.18%     98.32% # Distribution of cycle latency between the first time a load is issued and its completion (Unspecified)
board.processor.cores7.core.lsq0.loadToUse::170-179       214338      0.05%     98.37% # Distribution of cycle latency between the first time a load is issued and its completion (Unspecified)
board.processor.cores7.core.lsq0.loadToUse::180-189       564960      0.13%     98.50% # Distribution of cycle latency between the first time a load is issued and its completion (Unspecified)
board.processor.cores7.core.lsq0.loadToUse::190-199       390661      0.09%     98.59% # Distribution of cycle latency between the first time a load is issued and its completion (Unspecified)
board.processor.cores7.core.lsq0.loadToUse::200-209       327607      0.08%     98.66% # Distribution of cycle latency between the first time a load is issued and its completion (Unspecified)
board.processor.cores7.core.lsq0.loadToUse::210-219       279466      0.06%     98.73% # Distribution of cycle latency between the first time a load is issued and its completion (Unspecified)
board.processor.cores7.core.lsq0.loadToUse::220-229       896646      0.21%     98.94% # Distribution of cycle latency between the first time a load is issued and its completion (Unspecified)
board.processor.cores7.core.lsq0.loadToUse::230-239      1005105      0.23%     99.17% # Distribution of cycle latency between the first time a load is issued and its completion (Unspecified)
board.processor.cores7.core.lsq0.loadToUse::240-249       636567      0.15%     99.31% # Distribution of cycle latency between the first time a load is issued and its completion (Unspecified)
board.processor.cores7.core.lsq0.loadToUse::250-259       453437      0.10%     99.42% # Distribution of cycle latency between the first time a load is issued and its completion (Unspecified)
board.processor.cores7.core.lsq0.loadToUse::260-269       207882      0.05%     99.47% # Distribution of cycle latency between the first time a load is issued and its completion (Unspecified)
board.processor.cores7.core.lsq0.loadToUse::270-279       134572      0.03%     99.50% # Distribution of cycle latency between the first time a load is issued and its completion (Unspecified)
board.processor.cores7.core.lsq0.loadToUse::280-289       104249      0.02%     99.52% # Distribution of cycle latency between the first time a load is issued and its completion (Unspecified)
board.processor.cores7.core.lsq0.loadToUse::290-299        92112      0.02%     99.54% # Distribution of cycle latency between the first time a load is issued and its completion (Unspecified)
board.processor.cores7.core.lsq0.loadToUse::overflows      1994291      0.46%    100.00% # Distribution of cycle latency between the first time a load is issued and its completion (Unspecified)
board.processor.cores7.core.lsq0.loadToUse::min_value            2                       # Distribution of cycle latency between the first time a load is issued and its completion (Unspecified)
board.processor.cores7.core.lsq0.loadToUse::max_value         4642                       # Distribution of cycle latency between the first time a load is issued and its completion (Unspecified)
board.processor.cores7.core.lsq0.loadToUse::total    434770793                       # Distribution of cycle latency between the first time a load is issued and its completion (Unspecified)
board.processor.cores7.core.mmu.dtb.rdAccesses    526638081                       # TLB accesses on read requests (Count)
board.processor.cores7.core.mmu.dtb.wrAccesses    289327183                       # TLB accesses on write requests (Count)
board.processor.cores7.core.mmu.dtb.rdMisses     13817071                       # TLB misses on read requests (Count)
board.processor.cores7.core.mmu.dtb.wrMisses      3791439                       # TLB misses on write requests (Count)
board.processor.cores7.core.mmu.dtb.walker.power_state.pwrStateResidencyTicks::UNDEFINED 14647625412633                       # Cumulative time (in ticks) in various power states (Tick)
board.processor.cores7.core.mmu.itb.rdAccesses            0                       # TLB accesses on read requests (Count)
board.processor.cores7.core.mmu.itb.wrAccesses    309498093                       # TLB accesses on write requests (Count)
board.processor.cores7.core.mmu.itb.rdMisses            0                       # TLB misses on read requests (Count)
board.processor.cores7.core.mmu.itb.wrMisses      5386395                       # TLB misses on write requests (Count)
board.processor.cores7.core.mmu.itb.walker.power_state.pwrStateResidencyTicks::UNDEFINED 14647625412633                       # Cumulative time (in ticks) in various power states (Tick)
board.processor.cores7.core.power_state.numTransitions        27292                       # Number of power state transitions (Count)
board.processor.cores7.core.power_state.ticksClkGated::samples        13647                       # Distribution of time spent in the clock gated state (Tick)
board.processor.cores7.core.power_state.ticksClkGated::mean 963964735.549351                       # Distribution of time spent in the clock gated state (Tick)
board.processor.cores7.core.power_state.ticksClkGated::stdev 4691561068.413259                       # Distribution of time spent in the clock gated state (Tick)
board.processor.cores7.core.power_state.ticksClkGated::1000-5e+10        13646     99.99%     99.99% # Distribution of time spent in the clock gated state (Tick)
board.processor.cores7.core.power_state.ticksClkGated::5e+11-5.5e+11            1      0.01%    100.00% # Distribution of time spent in the clock gated state (Tick)
board.processor.cores7.core.power_state.ticksClkGated::min_value        95905                       # Distribution of time spent in the clock gated state (Tick)
board.processor.cores7.core.power_state.ticksClkGated::max_value 547594858999                       # Distribution of time spent in the clock gated state (Tick)
board.processor.cores7.core.power_state.ticksClkGated::total        13647                       # Distribution of time spent in the clock gated state (Tick)
board.processor.cores7.core.power_state.pwrStateResidencyTicks::ON 1492398666591                       # Cumulative time (in ticks) in various power states (Tick)
board.processor.cores7.core.power_state.pwrStateResidencyTicks::CLK_GATED 13155226746042                       # Cumulative time (in ticks) in various power states (Tick)
board.processor.cores7.core.rename.squashCycles     24524699                       # Number of cycles rename is squashing (Cycle)
board.processor.cores7.core.rename.idleCycles   1155943512                       # Number of cycles rename is idle (Cycle)
board.processor.cores7.core.rename.blockCycles    852362015                       # Number of cycles rename is blocking (Cycle)
board.processor.cores7.core.rename.serializeStallCycles    155770913                       # count of cycles rename stalled for serializing inst (Cycle)
board.processor.cores7.core.rename.runCycles    600136513                       # Number of cycles rename is running (Cycle)
board.processor.cores7.core.rename.unblockCycles    450318641                       # Number of cycles rename is unblocking (Cycle)
board.processor.cores7.core.rename.renamedInsts   4110251931                       # Number of instructions processed by rename (Count)
board.processor.cores7.core.rename.ROBFullEvents     14106362                       # Number of times rename has blocked due to ROB full (Count)
board.processor.cores7.core.rename.IQFullEvents     63161601                       # Number of times rename has blocked due to IQ full (Count)
board.processor.cores7.core.rename.LQFullEvents     35248090                       # Number of times rename has blocked due to LQ full (Count)
board.processor.cores7.core.rename.SQFullEvents    338175226                       # Number of times rename has blocked due to SQ full (Count)
board.processor.cores7.core.rename.fullRegistersEvents        13760                       # Number of times there has been no free registers (Count)
board.processor.cores7.core.rename.renamedOperands   6554021856                       # Number of destination operands rename has renamed (Count)
board.processor.cores7.core.rename.lookups  13398565260                       # Number of register rename lookups that rename has made (Count)
board.processor.cores7.core.rename.intLookups   5205191719                       # Number of integer rename lookups (Count)
board.processor.cores7.core.rename.fpLookups     84408724                       # Number of floating rename lookups (Count)
board.processor.cores7.core.rename.committedMaps   5193912986                       # Number of HB maps that are committed (Count)
board.processor.cores7.core.rename.undoneMaps   1360108870                       # Number of HB maps that are undone due to squashing (Count)
board.processor.cores7.core.rename.serializing      4102546                       # count of serializing insts renamed (Count)
board.processor.cores7.core.rename.tempSerializing      2797002                       # count of temporary serializing insts renamed (Count)
board.processor.cores7.core.rename.skidInsts    278274449                       # count of insts added to the skid buffer (Count)
board.processor.cores7.core.rob.reads      6910788488                       # The number of ROB reads (Count)
board.processor.cores7.core.rob.writes     8092686803                       # The number of ROB writes (Count)
board.processor.cores7.core.thread_0.numInsts   1585785984                       # Number of Instructions committed (Count)
board.processor.cores7.core.thread_0.numOps   3226813937                       # Number of Ops committed (Count)
board.processor.cores7.core.thread_0.numMemRefs            0                       # Number of Memory References (Count)
board.workload.inst.arm                             0                       # number of arm instructions executed (Count)
board.workload.inst.quiesce                         0                       # number of quiesce instructions executed (Count)

---------- End Simulation Statistics   ----------
