
---------- Begin Simulation Statistics ----------
simSeconds                                  13.539278                       # Number of seconds simulated (Second)
simTicks                                 13539278426076                       # Number of ticks simulated (Tick)
finalTick                                13539278426076                       # Number of ticks from beginning of simulation (restored from checkpoints and never reset) (Tick)
simFreq                                  1000000000000                       # The number of ticks per simulated second ((Tick/Second))
hostSeconds                                 136909.34                       # Real time elapsed on the host (Second)
hostTickRate                                 98892291                       # The number of ticks simulated per host second (ticks/s) ((Tick/Second))
hostMemory                                   30279324                       # Number of bytes of host memory used (Byte)
simInsts                                   5932258004                       # Number of instructions simulated (Count)
simOps                                    13160262915                       # Number of ops (including micro ops) simulated (Count)
hostInstRate                                    43330                       # Simulator instruction rate (inst/s) ((Count/Second))
hostOpRate                                      96124                       # Simulator op (including micro ops) rate (op/s) ((Count/Second))
board.cache_hierarchy.ruby_system.m_outstandReqHistSeqr::bucket_size            2                       (Unspecified)
board.cache_hierarchy.ruby_system.m_outstandReqHistSeqr::max_bucket           19                       (Unspecified)
board.cache_hierarchy.ruby_system.m_outstandReqHistSeqr::samples   3154947940                       (Unspecified)
board.cache_hierarchy.ruby_system.m_outstandReqHistSeqr::mean     1.605096                       (Unspecified)
board.cache_hierarchy.ruby_system.m_outstandReqHistSeqr::gmean     1.364007                       (Unspecified)
board.cache_hierarchy.ruby_system.m_outstandReqHistSeqr::stdev     1.360629                       (Unspecified)
board.cache_hierarchy.ruby_system.m_outstandReqHistSeqr |  2095983166     66.43%     66.43% |   896908692     28.43%     94.86% |   105604467      3.35%     98.21% |    23781542      0.75%     98.96% |    11181179      0.35%     99.32% |     7960274      0.25%     99.57% |     5946790      0.19%     99.76% |     4516018      0.14%     99.90% |     3065812      0.10%    100.00% |           0      0.00%    100.00% (Unspecified)
board.cache_hierarchy.ruby_system.m_outstandReqHistSeqr::total   3154947940                       (Unspecified)
board.cache_hierarchy.ruby_system.m_latencyHistSeqr::bucket_size          512                       (Unspecified)
board.cache_hierarchy.ruby_system.m_latencyHistSeqr::max_bucket         5119                       (Unspecified)
board.cache_hierarchy.ruby_system.m_latencyHistSeqr::samples   3168034388                       (Unspecified)
board.cache_hierarchy.ruby_system.m_latencyHistSeqr::mean     2.653258                       (Unspecified)
board.cache_hierarchy.ruby_system.m_latencyHistSeqr::gmean     1.069282                       (Unspecified)
board.cache_hierarchy.ruby_system.m_latencyHistSeqr::stdev    21.708395                       (Unspecified)
board.cache_hierarchy.ruby_system.m_latencyHistSeqr |  3166970380     99.97%     99.97% |      998044      0.03%    100.00% |       54246      0.00%    100.00% |       11640      0.00%    100.00% |          62      0.00%    100.00% |          16      0.00%    100.00% |           0      0.00%    100.00% |           0      0.00%    100.00% |           0      0.00%    100.00% |           0      0.00%    100.00% (Unspecified)
board.cache_hierarchy.ruby_system.m_latencyHistSeqr::total   3168034388                       (Unspecified)
board.cache_hierarchy.ruby_system.m_hitLatencyHistSeqr::bucket_size           64                       (Unspecified)
board.cache_hierarchy.ruby_system.m_hitLatencyHistSeqr::max_bucket          639                       (Unspecified)
board.cache_hierarchy.ruby_system.m_hitLatencyHistSeqr::samples   3111987246                       (Unspecified)
board.cache_hierarchy.ruby_system.m_hitLatencyHistSeqr::mean     1.005048                       (Unspecified)
board.cache_hierarchy.ruby_system.m_hitLatencyHistSeqr::gmean     1.003322                       (Unspecified)
board.cache_hierarchy.ruby_system.m_hitLatencyHistSeqr::stdev     0.115662                       (Unspecified)
board.cache_hierarchy.ruby_system.m_hitLatencyHistSeqr |  3111986980    100.00%    100.00% |         105      0.00%    100.00% |          52      0.00%    100.00% |          40      0.00%    100.00% |          17      0.00%    100.00% |          28      0.00%    100.00% |          24      0.00%    100.00% |           0      0.00%    100.00% |           0      0.00%    100.00% |           0      0.00%    100.00% (Unspecified)
board.cache_hierarchy.ruby_system.m_hitLatencyHistSeqr::total   3111987246                       (Unspecified)
board.cache_hierarchy.ruby_system.m_missLatencyHistSeqr::bucket_size          512                       (Unspecified)
board.cache_hierarchy.ruby_system.m_missLatencyHistSeqr::max_bucket         5119                       (Unspecified)
board.cache_hierarchy.ruby_system.m_missLatencyHistSeqr::samples     56047142                       (Unspecified)
board.cache_hierarchy.ruby_system.m_missLatencyHistSeqr::mean    94.169262                       (Unspecified)
board.cache_hierarchy.ruby_system.m_missLatencyHistSeqr::gmean    36.681658                       (Unspecified)
board.cache_hierarchy.ruby_system.m_missLatencyHistSeqr::stdev   134.575782                       (Unspecified)
board.cache_hierarchy.ruby_system.m_missLatencyHistSeqr |    54983134     98.10%     98.10% |      998044      1.78%     99.88% |       54246      0.10%     99.98% |       11640      0.02%    100.00% |          62      0.00%    100.00% |          16      0.00%    100.00% |           0      0.00%    100.00% |           0      0.00%    100.00% |           0      0.00%    100.00% |           0      0.00%    100.00% (Unspecified)
board.cache_hierarchy.ruby_system.m_missLatencyHistSeqr::total     56047142                       (Unspecified)
board.cache_hierarchy.ruby_system.Directory_Controller.GETX      9806040      0.00%      0.00% (Unspecified)
board.cache_hierarchy.ruby_system.Directory_Controller.GETS     12436755      0.00%      0.00% (Unspecified)
board.cache_hierarchy.ruby_system.Directory_Controller.PUTX      9750759      0.00%      0.00% (Unspecified)
board.cache_hierarchy.ruby_system.Directory_Controller.PUTO_SHARERS         5903      0.00%      0.00% (Unspecified)
board.cache_hierarchy.ruby_system.Directory_Controller.Unblock      4862492      0.00%      0.00% (Unspecified)
board.cache_hierarchy.ruby_system.Directory_Controller.Last_Unblock      7588274      0.00%      0.00% (Unspecified)
board.cache_hierarchy.ruby_system.Directory_Controller.Exclusive_Unblock     11111888      0.00%      0.00% (Unspecified)
board.cache_hierarchy.ruby_system.Directory_Controller.Dirty_Writeback      9756662      0.00%      0.00% (Unspecified)
board.cache_hierarchy.ruby_system.Directory_Controller.Memory_Data_DMA        65433      0.00%      0.00% (Unspecified)
board.cache_hierarchy.ruby_system.Directory_Controller.Memory_Data_Cache     22242579      0.00%      0.00% (Unspecified)
board.cache_hierarchy.ruby_system.Directory_Controller.Memory_Ack     11062614      0.00%      0.00% (Unspecified)
board.cache_hierarchy.ruby_system.Directory_Controller.DMA_READ        75626      0.00%      0.00% (Unspecified)
board.cache_hierarchy.ruby_system.Directory_Controller.DMA_WRITE_LINE      1305952      0.00%      0.00% (Unspecified)
board.cache_hierarchy.ruby_system.Directory_Controller.DMA_ACK        10193      0.00%      0.00% (Unspecified)
board.cache_hierarchy.ruby_system.Directory_Controller.Data        36169      0.00%      0.00% (Unspecified)
board.cache_hierarchy.ruby_system.Directory_Controller.All_Acks      1305952      0.00%      0.00% (Unspecified)
board.cache_hierarchy.ruby_system.Directory_Controller.I.GETX      5971374      0.00%      0.00% (Unspecified)
board.cache_hierarchy.ruby_system.Directory_Controller.I.GETS      4862492      0.00%      0.00% (Unspecified)
board.cache_hierarchy.ruby_system.Directory_Controller.I.DMA_READ        51310      0.00%      0.00% (Unspecified)
board.cache_hierarchy.ruby_system.Directory_Controller.I.DMA_WRITE_LINE      1136407      0.00%      0.00% (Unspecified)
board.cache_hierarchy.ruby_system.Directory_Controller.S.GETX      3834562      0.00%      0.00% (Unspecified)
board.cache_hierarchy.ruby_system.Directory_Controller.S.GETS      7574151      0.00%      0.00% (Unspecified)
board.cache_hierarchy.ruby_system.Directory_Controller.S.DMA_READ        14123      0.00%      0.00% (Unspecified)
board.cache_hierarchy.ruby_system.Directory_Controller.S.DMA_WRITE_LINE       133376      0.00%      0.00% (Unspecified)
board.cache_hierarchy.ruby_system.Directory_Controller.M.PUTX      9750759      0.00%      0.00% (Unspecified)
board.cache_hierarchy.ruby_system.Directory_Controller.M.PUTO_SHARERS         5903      0.00%      0.00% (Unspecified)
board.cache_hierarchy.ruby_system.Directory_Controller.M.DMA_READ        10193      0.00%      0.00% (Unspecified)
board.cache_hierarchy.ruby_system.Directory_Controller.M.DMA_WRITE_LINE        36169      0.00%      0.00% (Unspecified)
board.cache_hierarchy.ruby_system.Directory_Controller.IS_M.Memory_Data_Cache      4862492      0.00%      0.00% (Unspecified)
board.cache_hierarchy.ruby_system.Directory_Controller.IS.Unblock      4862492      0.00%      0.00% (Unspecified)
board.cache_hierarchy.ruby_system.Directory_Controller.SS.Last_Unblock      7588274      0.00%      0.00% (Unspecified)
board.cache_hierarchy.ruby_system.Directory_Controller.SS.Memory_Data_DMA        14123      0.00%      0.00% (Unspecified)
board.cache_hierarchy.ruby_system.Directory_Controller.SS.Memory_Data_Cache      7574151      0.00%      0.00% (Unspecified)
board.cache_hierarchy.ruby_system.Directory_Controller.MM_M.Memory_Data_Cache      9805936      0.00%      0.00% (Unspecified)
board.cache_hierarchy.ruby_system.Directory_Controller.MM.Exclusive_Unblock      9805936      0.00%      0.00% (Unspecified)
board.cache_hierarchy.ruby_system.Directory_Controller.MI.Dirty_Writeback      9750759      0.00%      0.00% (Unspecified)
board.cache_hierarchy.ruby_system.Directory_Controller.MIS.Dirty_Writeback         5903      0.00%      0.00% (Unspecified)
board.cache_hierarchy.ruby_system.Directory_Controller.WBI.GETX          104      0.00%      0.00% (Unspecified)
board.cache_hierarchy.ruby_system.Directory_Controller.WBI.GETS          112      0.00%      0.00% (Unspecified)
board.cache_hierarchy.ruby_system.Directory_Controller.WBI.Memory_Ack      9750759      0.00%      0.00% (Unspecified)
board.cache_hierarchy.ruby_system.Directory_Controller.WBS.Memory_Ack         5903      0.00%      0.00% (Unspecified)
board.cache_hierarchy.ruby_system.Directory_Controller.XI_M.Memory_Data_DMA        51310      0.00%      0.00% (Unspecified)
board.cache_hierarchy.ruby_system.Directory_Controller.XI_U.Exclusive_Unblock      1305952      0.00%      0.00% (Unspecified)
board.cache_hierarchy.ruby_system.Directory_Controller.XI_U.Memory_Ack      1305952      0.00%      0.00% (Unspecified)
board.cache_hierarchy.ruby_system.Directory_Controller.XI_U.All_Acks      1305952      0.00%      0.00% (Unspecified)
board.cache_hierarchy.ruby_system.Directory_Controller.OI_D.Data        36169      0.00%      0.00% (Unspecified)
board.cache_hierarchy.ruby_system.Directory_Controller.MD.DMA_ACK        10193      0.00%      0.00% (Unspecified)
board.cache_hierarchy.ruby_system.DMA_Controller.ReadRequest |     2191595    100.00%    100.00% |           0      0.00%    100.00% (Unspecified)
board.cache_hierarchy.ruby_system.DMA_Controller.ReadRequest::total      2191595                       (Unspecified)
board.cache_hierarchy.ruby_system.DMA_Controller.WriteRequest |    41379468    100.00%    100.00% |           0      0.00%    100.00% (Unspecified)
board.cache_hierarchy.ruby_system.DMA_Controller.WriteRequest::total     41379468                       (Unspecified)
board.cache_hierarchy.ruby_system.DMA_Controller.Data |       75626    100.00%    100.00% |           0      0.00%    100.00% (Unspecified)
board.cache_hierarchy.ruby_system.DMA_Controller.Data::total        75626                       (Unspecified)
board.cache_hierarchy.ruby_system.DMA_Controller.DMA_Ack |     1305952    100.00%    100.00% |           0      0.00%    100.00% (Unspecified)
board.cache_hierarchy.ruby_system.DMA_Controller.DMA_Ack::total      1305952                       (Unspecified)
board.cache_hierarchy.ruby_system.DMA_Controller.Inv_Ack |      133376    100.00%    100.00% |           0      0.00%    100.00% (Unspecified)
board.cache_hierarchy.ruby_system.DMA_Controller.Inv_Ack::total       133376                       (Unspecified)
board.cache_hierarchy.ruby_system.DMA_Controller.All_Acks |     1305952    100.00%    100.00% |           0      0.00%    100.00% (Unspecified)
board.cache_hierarchy.ruby_system.DMA_Controller.All_Acks::total      1305952                       (Unspecified)
board.cache_hierarchy.ruby_system.DMA_Controller.READY.ReadRequest |       75626    100.00%    100.00% |           0      0.00%    100.00% (Unspecified)
board.cache_hierarchy.ruby_system.DMA_Controller.READY.ReadRequest::total        75626                       (Unspecified)
board.cache_hierarchy.ruby_system.DMA_Controller.READY.WriteRequest |     1305952    100.00%    100.00% |           0      0.00%    100.00% (Unspecified)
board.cache_hierarchy.ruby_system.DMA_Controller.READY.WriteRequest::total      1305952                       (Unspecified)
board.cache_hierarchy.ruby_system.DMA_Controller.BUSY_RD.ReadRequest |     2115969    100.00%    100.00% |           0      0.00%    100.00% (Unspecified)
board.cache_hierarchy.ruby_system.DMA_Controller.BUSY_RD.ReadRequest::total      2115969                       (Unspecified)
board.cache_hierarchy.ruby_system.DMA_Controller.BUSY_RD.Data |       75626    100.00%    100.00% |           0      0.00%    100.00% (Unspecified)
board.cache_hierarchy.ruby_system.DMA_Controller.BUSY_RD.Data::total        75626                       (Unspecified)
board.cache_hierarchy.ruby_system.DMA_Controller.BUSY_WR.WriteRequest |    40073516    100.00%    100.00% |           0      0.00%    100.00% (Unspecified)
board.cache_hierarchy.ruby_system.DMA_Controller.BUSY_WR.WriteRequest::total     40073516                       (Unspecified)
board.cache_hierarchy.ruby_system.DMA_Controller.BUSY_WR.DMA_Ack |     1305952    100.00%    100.00% |           0      0.00%    100.00% (Unspecified)
board.cache_hierarchy.ruby_system.DMA_Controller.BUSY_WR.DMA_Ack::total      1305952                       (Unspecified)
board.cache_hierarchy.ruby_system.DMA_Controller.BUSY_WR.Inv_Ack |      133376    100.00%    100.00% |           0      0.00%    100.00% (Unspecified)
board.cache_hierarchy.ruby_system.DMA_Controller.BUSY_WR.Inv_Ack::total       133376                       (Unspecified)
board.cache_hierarchy.ruby_system.DMA_Controller.BUSY_WR.All_Acks |     1305952    100.00%    100.00% |           0      0.00%    100.00% (Unspecified)
board.cache_hierarchy.ruby_system.DMA_Controller.BUSY_WR.All_Acks::total      1305952                       (Unspecified)
board.cache_hierarchy.ruby_system.L1Cache_Controller.Load |   573409531     39.01%     39.01% |   101907588      6.93%     45.94% |   448671155     30.52%     76.47% |    44543389      3.03%     79.50% |    63304915      4.31%     83.80% |    50738758      3.45%     87.26% |   135270687      9.20%     96.46% |    52058416      3.54%    100.00% (Unspecified)
board.cache_hierarchy.ruby_system.L1Cache_Controller.Load::total   1469904439                       (Unspecified)
board.cache_hierarchy.ruby_system.L1Cache_Controller.Ifetch |   294165366     30.43%     30.43% |    77518706      8.02%     38.45% |   293055639     30.31%     68.76% |    40426819      4.18%     72.94% |    55367263      5.73%     78.67% |    45087101      4.66%     83.33% |   115264687     11.92%     95.26% |    45870537      4.74%    100.00% (Unspecified)
board.cache_hierarchy.ruby_system.L1Cache_Controller.Ifetch::total    966756118                       (Unspecified)
board.cache_hierarchy.ruby_system.L1Cache_Controller.Store |   180708803     24.71%     24.71% |    69129185      9.45%     34.16% |   239826969     32.79%     66.95% |    36311000      4.96%     71.91% |    61281941      8.38%     80.29% |    39380256      5.38%     85.68% |    61722184      8.44%     94.11% |    43050205      5.89%    100.00% (Unspecified)
board.cache_hierarchy.ruby_system.L1Cache_Controller.Store::total    731410543                       (Unspecified)
board.cache_hierarchy.ruby_system.L1Cache_Controller.L1_Replacement |     9911111     19.10%     19.10% |     4657640      8.98%     28.08% |    21853813     42.11%     70.19% |     1535373      2.96%     73.15% |     2708112      5.22%     78.37% |     1816404      3.50%     81.87% |     6893124     13.28%     95.15% |     2515534      4.85%    100.00% (Unspecified)
board.cache_hierarchy.ruby_system.L1Cache_Controller.L1_Replacement::total     51891111                       (Unspecified)
board.cache_hierarchy.ruby_system.L1Cache_Controller.Own_GETX |        2027     14.34%     14.34% |        1643     11.62%     25.97% |        1373      9.71%     35.68% |        1403      9.93%     45.61% |        2292     16.22%     61.82% |        2241     15.86%     77.68% |        1786     12.64%     90.31% |        1369      9.69%    100.00% (Unspecified)
board.cache_hierarchy.ruby_system.L1Cache_Controller.Own_GETX::total        14134                       (Unspecified)
board.cache_hierarchy.ruby_system.L1Cache_Controller.Fwd_GETX |      114319     15.11%     15.11% |      155882     20.60%     35.71% |       69280      9.16%     44.87% |       49458      6.54%     51.40% |      125541     16.59%     67.99% |       71466      9.45%     77.44% |       50589      6.69%     84.12% |      120119     15.88%    100.00% (Unspecified)
board.cache_hierarchy.ruby_system.L1Cache_Controller.Fwd_GETX::total       756654                       (Unspecified)
board.cache_hierarchy.ruby_system.L1Cache_Controller.Fwd_GETS |      687671     21.31%     21.31% |      533284     16.53%     37.84% |      345248     10.70%     48.54% |      276124      8.56%     57.09% |      334546     10.37%     67.46% |      302529      9.38%     76.84% |      196297      6.08%     82.92% |      551159     17.08%    100.00% (Unspecified)
board.cache_hierarchy.ruby_system.L1Cache_Controller.Fwd_GETS::total      3226858                       (Unspecified)
board.cache_hierarchy.ruby_system.L1Cache_Controller.Fwd_DMA |        1490     15.43%     15.43% |         435      4.50%     19.94% |        3016     31.23%     51.17% |         824      8.53%     59.70% |        1434     14.85%     74.55% |         842      8.72%     83.27% |         559      5.79%     89.06% |        1056     10.94%    100.00% (Unspecified)
board.cache_hierarchy.ruby_system.L1Cache_Controller.Fwd_DMA::total         9656                       (Unspecified)
board.cache_hierarchy.ruby_system.L1Cache_Controller.Inv |       36917      6.54%      6.54% |       90114     15.96%     22.50% |       75131     13.31%     35.81% |       86934     15.40%     51.22% |       86617     15.34%     66.56% |       84444     14.96%     81.52% |       76637     13.58%     95.10% |       27672      4.90%    100.00% (Unspecified)
board.cache_hierarchy.ruby_system.L1Cache_Controller.Inv::total       564466                       (Unspecified)
board.cache_hierarchy.ruby_system.L1Cache_Controller.Ack |      533777     42.02%     42.02% |      172265     13.56%     55.58% |      102947      8.10%     63.68% |       76828      6.05%     69.73% |      115205      9.07%     78.80% |      106511      8.38%     87.18% |       75892      5.97%     93.16% |       86910      6.84%    100.00% (Unspecified)
board.cache_hierarchy.ruby_system.L1Cache_Controller.Ack::total      1270335                       (Unspecified)
board.cache_hierarchy.ruby_system.L1Cache_Controller.Data |     6163479     16.00%     16.00% |     3102941      8.06%     24.06% |    17964079     46.65%     70.71% |     1195937      3.11%     73.82% |     1748602      4.54%     78.36% |     1417746      3.68%     82.04% |     5081049     13.19%     95.23% |     1836057      4.77%    100.00% (Unspecified)
board.cache_hierarchy.ruby_system.L1Cache_Controller.Data::total     38509890                       (Unspecified)
board.cache_hierarchy.ruby_system.L1Cache_Controller.Exclusive_Data |     5148648     29.38%     29.38% |     2106272     12.02%     41.40% |     4463815     25.47%     66.88% |      588863      3.36%     70.24% |     1317914      7.52%     77.76% |      665906      3.80%     81.56% |     2290259     13.07%     94.63% |      941441      5.37%    100.00% (Unspecified)
board.cache_hierarchy.ruby_system.L1Cache_Controller.Exclusive_Data::total     17523118                       (Unspecified)
board.cache_hierarchy.ruby_system.L1Cache_Controller.Writeback_Ack |     3319739     14.19%     14.19% |     1517374      6.49%     20.68% |    14322854     61.22%     81.90% |      562212      2.40%     84.30% |      900945      3.85%     88.15% |      742276      3.17%     91.33% |      959667      4.10%     95.43% |     1069253      4.57%    100.00% (Unspecified)
board.cache_hierarchy.ruby_system.L1Cache_Controller.Writeback_Ack::total     23394320                       (Unspecified)
board.cache_hierarchy.ruby_system.L1Cache_Controller.Writeback_Ack_Data |     6483422     23.26%     23.26% |     3007075     10.79%     34.05% |     7458136     26.75%     60.80% |      922780      3.31%     64.11% |     1722671      6.18%     70.29% |     1009168      3.62%     73.91% |     5890349     21.13%     95.04% |     1382075      4.96%    100.00% (Unspecified)
board.cache_hierarchy.ruby_system.L1Cache_Controller.Writeback_Ack_Data::total     27875676                       (Unspecified)
board.cache_hierarchy.ruby_system.L1Cache_Controller.Writeback_Nack |           2     18.18%     18.18% |           7     63.64%     81.82% |           0      0.00%     81.82% |           0      0.00%     81.82% |           1      9.09%     90.91% |           0      0.00%     90.91% |           1      9.09%    100.00% |           0      0.00%    100.00% (Unspecified)
board.cache_hierarchy.ruby_system.L1Cache_Controller.Writeback_Nack::total           11                       (Unspecified)
board.cache_hierarchy.ruby_system.L1Cache_Controller.All_acks |     3815802     30.22%     30.22% |     1380074     10.93%     41.15% |     2861280     22.66%     63.81% |      442266      3.50%     67.31% |      979976      7.76%     75.07% |      466487      3.69%     78.77% |     1996961     15.82%     94.58% |      684046      5.42%    100.00% (Unspecified)
board.cache_hierarchy.ruby_system.L1Cache_Controller.All_acks::total     12626892                       (Unspecified)
board.cache_hierarchy.ruby_system.L1Cache_Controller.Use_Timeout |     5150675     29.37%     29.37% |     2107915     12.02%     41.39% |     4465188     25.46%     66.85% |      590266      3.37%     70.22% |     1320206      7.53%     77.74% |      668147      3.81%     81.55% |     2292045     13.07%     94.62% |      942810      5.38%    100.00% (Unspecified)
board.cache_hierarchy.ruby_system.L1Cache_Controller.Use_Timeout::total     17537252                       (Unspecified)
board.cache_hierarchy.ruby_system.L1Cache_Controller.I.Load |     4384149     19.05%     19.05% |     2230625      9.69%     28.74% |     8157583     35.45%     64.19% |      747921      3.25%     67.44% |     1145296      4.98%     72.42% |      834128      3.62%     76.04% |     4545394     19.75%     95.80% |      967225      4.20%    100.00% (Unspecified)
board.cache_hierarchy.ruby_system.L1Cache_Controller.I.Load::total     23012321                       (Unspecified)
board.cache_hierarchy.ruby_system.L1Cache_Controller.I.Ifetch |     3114203     15.26%     15.26% |     1600157      7.84%     23.10% |    11410405     55.91%     79.01% |      596016      2.92%     81.93% |      943536      4.62%     86.56% |      785278      3.85%     90.40% |      830739      4.07%     94.47% |     1127596      5.53%    100.00% (Unspecified)
board.cache_hierarchy.ruby_system.L1Cache_Controller.I.Ifetch::total     20407930                       (Unspecified)
board.cache_hierarchy.ruby_system.L1Cache_Controller.I.Store |     2653613     26.59%     26.59% |     1104747     11.07%     37.67% |     2437115     24.42%     62.09% |      339855      3.41%     65.50% |      847824      8.50%     73.99% |      364894      3.66%     77.65% |     1652946     16.57%     94.22% |      577038      5.78%    100.00% (Unspecified)
board.cache_hierarchy.ruby_system.L1Cache_Controller.I.Store::total      9978032                       (Unspecified)
board.cache_hierarchy.ruby_system.L1Cache_Controller.I.L1_Replacement |      107823     17.37%     17.37% |      133157     21.45%     38.81% |       72791     11.72%     50.54% |       50379      8.11%     58.65% |       84495     13.61%     72.26% |       64960     10.46%     82.72% |       43087      6.94%     89.66% |       64200     10.34%    100.00% (Unspecified)
board.cache_hierarchy.ruby_system.L1Cache_Controller.I.L1_Replacement::total       620892                       (Unspecified)
board.cache_hierarchy.ruby_system.L1Cache_Controller.S.Load |   110186894     27.27%     27.27% |    28209581      6.98%     34.25% |   137230840     33.96%     68.20% |    11937990      2.95%     71.16% |    20083597      4.97%     76.13% |    13887958      3.44%     79.56% |    67241814     16.64%     96.20% |    15342973      3.80%    100.00% (Unspecified)
board.cache_hierarchy.ruby_system.L1Cache_Controller.S.Load::total    404121647                       (Unspecified)
board.cache_hierarchy.ruby_system.L1Cache_Controller.S.Ifetch |   204181418     23.76%     23.76% |    75915159      8.83%     32.59% |   281639975     32.77%     65.36% |    39830534      4.63%     69.99% |    54423305      6.33%     76.33% |    44301473      5.15%     81.48% |   114433568     13.31%     94.79% |    44742524      5.21%    100.00% (Unspecified)
board.cache_hierarchy.ruby_system.L1Cache_Controller.S.Ifetch::total    859467956                       (Unspecified)
board.cache_hierarchy.ruby_system.L1Cache_Controller.S.Store |     1160139     44.04%     44.04% |      273658     10.39%     54.42% |      422772     16.05%     70.47% |      100992      3.83%     74.30% |      129823      4.93%     79.23% |       99324      3.77%     83.00% |      342207     12.99%     95.99% |      105614      4.01%    100.00% (Unspecified)
board.cache_hierarchy.ruby_system.L1Cache_Controller.S.Store::total      2634529                       (Unspecified)
board.cache_hierarchy.ruby_system.L1Cache_Controller.S.L1_Replacement |     4963751     14.07%     14.07% |     2736922      7.76%     21.82% |    17463942     49.49%     71.31% |     1005103      2.85%     74.16% |     1529291      4.33%     78.49% |     1231497      3.49%     81.98% |     4659497     13.20%     95.18% |     1700105      4.82%    100.00% (Unspecified)
board.cache_hierarchy.ruby_system.L1Cache_Controller.S.L1_Replacement::total     35290108                       (Unspecified)
board.cache_hierarchy.ruby_system.L1Cache_Controller.S.Fwd_GETS |      408193     28.30%     28.30% |      253982     17.61%     45.91% |      199302     13.82%     59.73% |      159307     11.05%     70.77% |      118996      8.25%     79.02% |      131204      9.10%     88.12% |       84401      5.85%     93.97% |       86932      6.03%    100.00% (Unspecified)
board.cache_hierarchy.ruby_system.L1Cache_Controller.S.Fwd_GETS::total      1442317                       (Unspecified)
board.cache_hierarchy.ruby_system.L1Cache_Controller.S.Inv |       36797      6.54%      6.54% |       90044     16.00%     22.53% |       74843     13.30%     35.83% |       86775     15.42%     51.25% |       86450     15.36%     66.61% |       84042     14.93%     81.54% |       76471     13.59%     95.12% |       27456      4.88%    100.00% (Unspecified)
board.cache_hierarchy.ruby_system.L1Cache_Controller.S.Inv::total       562878                       (Unspecified)
board.cache_hierarchy.ruby_system.L1Cache_Controller.O.Load |      214173      7.74%      7.74% |      552232     19.96%     27.71% |      391683     14.16%     41.87% |      169530      6.13%     48.00% |      250764      9.07%     57.06% |      263016      9.51%     66.57% |      296021     10.70%     77.27% |      628661     22.73%    100.00% (Unspecified)
board.cache_hierarchy.ruby_system.L1Cache_Controller.O.Load::total      2766080                       (Unspecified)
board.cache_hierarchy.ruby_system.L1Cache_Controller.O.Ifetch |      560788     99.99%     99.99% |          21      0.00%     99.99% |           0      0.00%     99.99% |          32      0.01%    100.00% |           0      0.00%    100.00% |           0      0.00%    100.00% |           0      0.00%    100.00% |           0      0.00%    100.00% (Unspecified)
board.cache_hierarchy.ruby_system.L1Cache_Controller.O.Ifetch::total       560841                       (Unspecified)
board.cache_hierarchy.ruby_system.L1Cache_Controller.O.Store |        2050     14.30%     14.30% |        1669     11.65%     25.95% |        1393      9.72%     35.67% |        1419      9.90%     45.57% |        2329     16.25%     61.82% |        2269     15.83%     77.66% |        1808     12.62%     90.27% |        1394      9.73%    100.00% (Unspecified)
board.cache_hierarchy.ruby_system.L1Cache_Controller.O.Store::total        14331                       (Unspecified)
board.cache_hierarchy.ruby_system.L1Cache_Controller.O.L1_Replacement |        4465     16.63%     16.63% |        5700     21.24%     37.87% |        2885     10.75%     48.62% |        2429      9.05%     57.67% |        2542      9.47%     67.14% |        3295     12.28%     79.41% |        2165      8.07%     87.48% |        3361     12.52%    100.00% (Unspecified)
board.cache_hierarchy.ruby_system.L1Cache_Controller.O.L1_Replacement::total        26842                       (Unspecified)
board.cache_hierarchy.ruby_system.L1Cache_Controller.O.Fwd_GETX |       21436      9.14%      9.14% |       50111     21.36%     30.50% |       17737      7.56%     38.06% |       10469      4.46%     42.52% |       26639     11.35%     53.87% |       21563      9.19%     63.06% |       14848      6.33%     69.39% |       71805     30.61%    100.00% (Unspecified)
board.cache_hierarchy.ruby_system.L1Cache_Controller.O.Fwd_GETX::total       234608                       (Unspecified)
board.cache_hierarchy.ruby_system.L1Cache_Controller.O.Fwd_GETS |       24824      4.85%      4.85% |       32120      6.28%     11.13% |       28055      5.48%     16.61% |       26267      5.13%     21.74% |       28054      5.48%     27.22% |       45202      8.83%     36.06% |       26769      5.23%     41.29% |      300458     58.71%    100.00% (Unspecified)
board.cache_hierarchy.ruby_system.L1Cache_Controller.O.Fwd_GETS::total       511749                       (Unspecified)
board.cache_hierarchy.ruby_system.L1Cache_Controller.O.Fwd_DMA |           0      0.00%      0.00% |           0      0.00%      0.00% |           3    100.00%    100.00% |           0      0.00%    100.00% |           0      0.00%    100.00% |           0      0.00%    100.00% |           0      0.00%    100.00% |           0      0.00%    100.00% (Unspecified)
board.cache_hierarchy.ruby_system.L1Cache_Controller.O.Fwd_DMA::total            3                       (Unspecified)
board.cache_hierarchy.ruby_system.L1Cache_Controller.M.Load |    16573754     14.65%     14.65% |    12890159     11.40%     26.05% |    51192649     45.26%     71.31% |     5145036      4.55%     75.86% |     5163181      4.57%     80.43% |     5946688      5.26%     85.69% |    10092332      8.92%     94.61% |     6098085      5.39%    100.00% (Unspecified)
board.cache_hierarchy.ruby_system.L1Cache_Controller.M.Load::total    113101884                       (Unspecified)
board.cache_hierarchy.ruby_system.L1Cache_Controller.M.Ifetch |    86301221    100.00%    100.00% |          57      0.00%    100.00% |         501      0.00%    100.00% |           8      0.00%    100.00% |           1      0.00%    100.00% |           1      0.00%    100.00% |           2      0.00%    100.00% |           2      0.00%    100.00% (Unspecified)
board.cache_hierarchy.ruby_system.L1Cache_Controller.M.Ifetch::total     86301793                       (Unspecified)
board.cache_hierarchy.ruby_system.L1Cache_Controller.M.Store |      407542     28.67%     28.67% |      196438     13.82%     42.48% |      417732     29.38%     71.86% |       52642      3.70%     75.57% |       88698      6.24%     81.81% |       67481      4.75%     86.55% |      121812      8.57%     95.12% |       69384      4.88%    100.00% (Unspecified)
board.cache_hierarchy.ruby_system.L1Cache_Controller.M.Store::total      1421729                       (Unspecified)
board.cache_hierarchy.ruby_system.L1Cache_Controller.M.L1_Replacement |      535143     25.64%     25.64% |      284754     13.64%     39.28% |      840297     40.26%     79.55% |       44831      2.15%     81.69% |      151161      7.24%     88.94% |       56949      2.73%     91.67% |      108386      5.19%     96.86% |       65543      3.14%    100.00% (Unspecified)
board.cache_hierarchy.ruby_system.L1Cache_Controller.M.L1_Replacement::total      2087064                       (Unspecified)
board.cache_hierarchy.ruby_system.L1Cache_Controller.M.Fwd_GETX |        9977     13.98%     13.98% |       21383     29.97%     43.96% |        7392     10.36%     54.32% |        3112      4.36%     58.68% |       10668     14.95%     73.63% |        4956      6.95%     80.58% |        7223     10.12%     90.71% |        6631      9.29%    100.00% (Unspecified)
board.cache_hierarchy.ruby_system.L1Cache_Controller.M.Fwd_GETX::total        71342                       (Unspecified)
board.cache_hierarchy.ruby_system.L1Cache_Controller.M.Fwd_GETS |       27958     10.14%     10.14% |       57487     20.84%     30.98% |       22016      7.98%     38.96% |       14324      5.19%     44.15% |       31524     11.43%     55.58% |       27130      9.84%     65.41% |       18831      6.83%     72.24% |       76575     27.76%    100.00% (Unspecified)
board.cache_hierarchy.ruby_system.L1Cache_Controller.M.Fwd_GETS::total       275845                       (Unspecified)
board.cache_hierarchy.ruby_system.L1Cache_Controller.M.Fwd_DMA |           0      0.00%      0.00% |           0      0.00%      0.00% |         155     98.10%     98.10% |           0      0.00%     98.10% |           3      1.90%    100.00% |           0      0.00%    100.00% |           0      0.00%    100.00% |           0      0.00%    100.00% (Unspecified)
board.cache_hierarchy.ruby_system.L1Cache_Controller.M.Fwd_DMA::total          158                       (Unspecified)
board.cache_hierarchy.ruby_system.L1Cache_Controller.M_W.Load |      756031     22.89%     22.89% |      444491     13.46%     36.34% |      911396     27.59%     63.93% |      126830      3.84%     67.77% |      436382     13.21%     80.98% |      154615      4.68%     85.66% |      237246      7.18%     92.84% |      236451      7.16%    100.00% (Unspecified)
board.cache_hierarchy.ruby_system.L1Cache_Controller.M_W.Load::total      3303442                       (Unspecified)
board.cache_hierarchy.ruby_system.L1Cache_Controller.M_W.Ifetch |         117     46.61%     46.61% |          16      6.37%     52.99% |         104     41.43%     94.42% |           4      1.59%     96.02% |           3      1.20%     97.21% |           3      1.20%     98.41% |           2      0.80%     99.20% |           2      0.80%    100.00% (Unspecified)
board.cache_hierarchy.ruby_system.L1Cache_Controller.M_W.Ifetch::total          251                       (Unspecified)
board.cache_hierarchy.ruby_system.L1Cache_Controller.M_W.Store |      354199     33.60%     33.60% |      167749     15.92%     49.52% |      316397     30.02%     79.54% |       33081      3.14%     82.68% |       58144      5.52%     88.19% |       45115      4.28%     92.47% |       38800      3.68%     96.15% |       40544      3.85%    100.00% (Unspecified)
board.cache_hierarchy.ruby_system.L1Cache_Controller.M_W.Store::total      1054029                       (Unspecified)
board.cache_hierarchy.ruby_system.L1Cache_Controller.M_W.L1_Replacement |          96    100.00%    100.00% |           0      0.00%    100.00% |           0      0.00%    100.00% |           0      0.00%    100.00% |           0      0.00%    100.00% |           0      0.00%    100.00% |           0      0.00%    100.00% |           0      0.00%    100.00% (Unspecified)
board.cache_hierarchy.ruby_system.L1Cache_Controller.M_W.L1_Replacement::total           96                       (Unspecified)
board.cache_hierarchy.ruby_system.L1Cache_Controller.M_W.Fwd_GETX |        1305      4.92%      4.92% |        1485      5.60%     10.52% |        1534      5.79%     16.31% |        1158      4.37%     20.68% |       16689     62.94%     83.62% |        1642      6.19%     89.81% |        1403      5.29%     95.10% |        1299      4.90%    100.00% (Unspecified)
board.cache_hierarchy.ruby_system.L1Cache_Controller.M_W.Fwd_GETX::total        26515                       (Unspecified)
board.cache_hierarchy.ruby_system.L1Cache_Controller.M_W.Fwd_GETS |       13213     28.63%     28.63% |       13307     28.83%     57.46% |        2801      6.07%     63.53% |        2019      4.37%     67.90% |        6367     13.79%     81.70% |        3912      8.48%     90.17% |        2073      4.49%     94.66% |        2463      5.34%    100.00% (Unspecified)
board.cache_hierarchy.ruby_system.L1Cache_Controller.M_W.Fwd_GETS::total        46155                       (Unspecified)
board.cache_hierarchy.ruby_system.L1Cache_Controller.M_W.Use_Timeout |      980674     25.43%     25.43% |      560092     14.52%     39.95% |     1287511     33.39%     73.34% |      114919      2.98%     76.32% |      282086      7.31%     83.64% |      156545      4.06%     87.70% |      256284      6.65%     94.34% |      218220      5.66%    100.00% (Unspecified)
board.cache_hierarchy.ruby_system.L1Cache_Controller.M_W.Use_Timeout::total      3856331                       (Unspecified)
board.cache_hierarchy.ruby_system.L1Cache_Controller.MM.Load |   440684642     47.83%     47.83% |    57267445      6.22%     54.05% |   250194845     27.16%     81.20% |    26334742      2.86%     84.06% |    36079777      3.92%     87.98% |    29555837      3.21%     91.19% |    52506261      5.70%     96.89% |    28687745      3.11%    100.00% (Unspecified)
board.cache_hierarchy.ruby_system.L1Cache_Controller.MM.Load::total    921311294                       (Unspecified)
board.cache_hierarchy.ruby_system.L1Cache_Controller.MM.Store |   151247948     23.61%     23.61% |    59866863      9.35%     32.96% |   221313635     34.55%     67.51% |    33067859      5.16%     72.68% |    51745162      8.08%     80.76% |    36118069      5.64%     86.39% |    50914582      7.95%     94.34% |    36225402      5.66%    100.00% (Unspecified)
board.cache_hierarchy.ruby_system.L1Cache_Controller.MM.Store::total    640499520                       (Unspecified)
board.cache_hierarchy.ruby_system.L1Cache_Controller.MM.L1_Replacement |     4299804     31.01%     31.01% |     1497080     10.80%     41.81% |     3473867     25.05%     66.86% |      432629      3.12%     69.98% |      940623      6.78%     76.76% |      459703      3.32%     80.08% |     2079969     15.00%     95.08% |      682319      4.92%    100.00% (Unspecified)
board.cache_hierarchy.ruby_system.L1Cache_Controller.MM.L1_Replacement::total     13865994                       (Unspecified)
board.cache_hierarchy.ruby_system.L1Cache_Controller.MM.Fwd_GETX |       77443     19.74%     19.74% |       80607     20.55%     40.29% |       38572      9.83%     50.12% |       31119      7.93%     58.05% |       67354     17.17%     75.22% |       37150      9.47%     84.69% |       23477      5.98%     90.67% |       36596      9.33%    100.00% (Unspecified)
board.cache_hierarchy.ruby_system.L1Cache_Controller.MM.Fwd_GETX::total       392318                       (Unspecified)
board.cache_hierarchy.ruby_system.L1Cache_Controller.MM.Fwd_GETS |      199683     23.84%     23.84% |      165627     19.77%     43.61% |       81476      9.73%     53.33% |       63508      7.58%     60.91% |      118047     14.09%     75.00% |       81586      9.74%     84.74% |       53650      6.40%     91.15% |       74175      8.85%    100.00% (Unspecified)
board.cache_hierarchy.ruby_system.L1Cache_Controller.MM.Fwd_GETS::total       837752                       (Unspecified)
board.cache_hierarchy.ruby_system.L1Cache_Controller.MM.Fwd_DMA |        1490     15.69%     15.69% |         435      4.58%     20.27% |        2858     30.10%     50.37% |         824      8.68%     59.05% |        1431     15.07%     74.12% |         842      8.87%     82.99% |         559      5.89%     88.88% |        1056     11.12%    100.00% (Unspecified)
board.cache_hierarchy.ruby_system.L1Cache_Controller.MM.Fwd_DMA::total         9495                       (Unspecified)
board.cache_hierarchy.ruby_system.L1Cache_Controller.MM_W.Load |      601370     26.51%     26.51% |      309270     13.63%     40.14% |      587002     25.88%     66.02% |       81078      3.57%     69.59% |      145548      6.42%     76.01% |       96189      4.24%     80.25% |      351225     15.48%     95.73% |       96863      4.27%    100.00% (Unspecified)
board.cache_hierarchy.ruby_system.L1Cache_Controller.MM_W.Load::total      2268545                       (Unspecified)
board.cache_hierarchy.ruby_system.L1Cache_Controller.MM_W.Store |    24883245     32.82%     32.82% |     7518037      9.92%     42.74% |    14917894     19.68%     62.42% |     2715149      3.58%     66.00% |     8409958     11.09%     77.09% |     2683101      3.54%     80.63% |     8650026     11.41%     92.04% |     6030825      7.96%    100.00% (Unspecified)
board.cache_hierarchy.ruby_system.L1Cache_Controller.MM_W.Store::total     75808235                       (Unspecified)
board.cache_hierarchy.ruby_system.L1Cache_Controller.MM_W.L1_Replacement |          11    100.00%    100.00% |           0      0.00%    100.00% |           0      0.00%    100.00% |           0      0.00%    100.00% |           0      0.00%    100.00% |           0      0.00%    100.00% |           0      0.00%    100.00% |           0      0.00%    100.00% (Unspecified)
board.cache_hierarchy.ruby_system.L1Cache_Controller.MM_W.L1_Replacement::total           11                       (Unspecified)
board.cache_hierarchy.ruby_system.L1Cache_Controller.MM_W.Fwd_GETX |        4134     13.05%     13.05% |        2270      7.17%     20.22% |        4025     12.71%     32.93% |        3584     11.32%     44.24% |        4154     13.12%     57.36% |        6127     19.34%     76.70% |        3616     11.42%     88.12% |        3763     11.88%    100.00% (Unspecified)
board.cache_hierarchy.ruby_system.L1Cache_Controller.MM_W.Fwd_GETX::total        31673                       (Unspecified)
board.cache_hierarchy.ruby_system.L1Cache_Controller.MM_W.Fwd_GETS |       13772     12.21%     12.21% |       10734      9.52%     21.72% |       11546     10.24%     31.96% |       10678      9.47%     41.43% |       31537     27.96%     69.39% |       13466     11.94%     81.32% |       10534      9.34%     90.66% |       10534      9.34%    100.00% (Unspecified)
board.cache_hierarchy.ruby_system.L1Cache_Controller.MM_W.Fwd_GETS::total       112801                       (Unspecified)
board.cache_hierarchy.ruby_system.L1Cache_Controller.MM_W.Use_Timeout |     4170001     30.48%     30.48% |     1547823     11.31%     41.79% |     3177677     23.23%     65.02% |      475347      3.47%     68.50% |     1038120      7.59%     76.08% |      511602      3.74%     79.82% |     2035761     14.88%     94.70% |      724590      5.30%    100.00% (Unspecified)
board.cache_hierarchy.ruby_system.L1Cache_Controller.MM_W.Use_Timeout::total     13680921                       (Unspecified)
board.cache_hierarchy.ruby_system.L1Cache_Controller.IM.L1_Replacement |           0      0.00%      0.00% |           0      0.00%      0.00% |           1     50.00%     50.00% |           0      0.00%     50.00% |           0      0.00%     50.00% |           0      0.00%     50.00% |           1     50.00%    100.00% |           0      0.00%    100.00% (Unspecified)
board.cache_hierarchy.ruby_system.L1Cache_Controller.IM.L1_Replacement::total            2                       (Unspecified)
board.cache_hierarchy.ruby_system.L1Cache_Controller.IM.Ack |      361800     47.84%     47.84% |      112306     14.85%     62.70% |       56648      7.49%     70.19% |       32714      4.33%     74.51% |       62209      8.23%     82.74% |       56072      7.42%     90.16% |       34666      4.58%     94.74% |       39777      5.26%    100.00% (Unspecified)
board.cache_hierarchy.ruby_system.L1Cache_Controller.IM.Ack::total       756192                       (Unspecified)
board.cache_hierarchy.ruby_system.L1Cache_Controller.IM.Exclusive_Data |     2653754     26.59%     26.59% |     1104836     11.07%     37.66% |     2437423     24.42%     62.09% |      340030      3.41%     65.49% |      848027      8.50%     73.99% |      365324      3.66%     77.65% |     1653133     16.56%     94.22% |      577279      5.78%    100.00% (Unspecified)
board.cache_hierarchy.ruby_system.L1Cache_Controller.IM.Exclusive_Data::total      9979806                       (Unspecified)
board.cache_hierarchy.ruby_system.L1Cache_Controller.IS.L1_Replacement |           4     10.53%     10.53% |           7     18.42%     28.95% |           0      0.00%     28.95% |           2      5.26%     34.21% |           0      0.00%     34.21% |           0      0.00%     34.21% |          19     50.00%     84.21% |           6     15.79%    100.00% (Unspecified)
board.cache_hierarchy.ruby_system.L1Cache_Controller.IS.L1_Replacement::total           38                       (Unspecified)
board.cache_hierarchy.ruby_system.L1Cache_Controller.IS.Data |     6163479     16.00%     16.00% |     3102941      8.06%     24.06% |    17964079     46.65%     70.71% |     1195937      3.11%     73.82% |     1748602      4.54%     78.36% |     1417746      3.68%     82.04% |     5081049     13.19%     95.23% |     1836057      4.77%    100.00% (Unspecified)
board.cache_hierarchy.ruby_system.L1Cache_Controller.IS.Data::total     38509890                       (Unspecified)
board.cache_hierarchy.ruby_system.L1Cache_Controller.IS.Exclusive_Data |     1334873     27.18%     27.18% |      727841     14.82%     42.01% |     1603908     32.66%     74.67% |      148000      3.01%     77.69% |      340230      6.93%     84.61% |      201660      4.11%     88.72% |      295084      6.01%     94.73% |      258764      5.27%    100.00% (Unspecified)
board.cache_hierarchy.ruby_system.L1Cache_Controller.IS.Exclusive_Data::total      4910360                       (Unspecified)
board.cache_hierarchy.ruby_system.L1Cache_Controller.SM.L1_Replacement |          14     21.88%     21.88% |          20     31.25%     53.12% |          30     46.88%    100.00% |           0      0.00%    100.00% |           0      0.00%    100.00% |           0      0.00%    100.00% |           0      0.00%    100.00% |           0      0.00%    100.00% (Unspecified)
board.cache_hierarchy.ruby_system.L1Cache_Controller.SM.L1_Replacement::total           64                       (Unspecified)
board.cache_hierarchy.ruby_system.L1Cache_Controller.SM.Fwd_GETS |           4     10.26%     10.26% |           2      5.13%     15.38% |          20     51.28%     66.67% |           1      2.56%     69.23% |           2      5.13%     74.36% |           4     10.26%     84.62% |           2      5.13%     89.74% |           4     10.26%    100.00% (Unspecified)
board.cache_hierarchy.ruby_system.L1Cache_Controller.SM.Fwd_GETS::total           39                       (Unspecified)
board.cache_hierarchy.ruby_system.L1Cache_Controller.SM.Inv |         118      7.48%      7.48% |          63      3.99%     11.48% |         288     18.26%     29.74% |         159     10.08%     39.82% |         166     10.53%     50.35% |         402     25.49%     75.84% |         165     10.46%     86.30% |         216     13.70%    100.00% (Unspecified)
board.cache_hierarchy.ruby_system.L1Cache_Controller.SM.Inv::total         1577                       (Unspecified)
board.cache_hierarchy.ruby_system.L1Cache_Controller.SM.Ack |      131419     40.41%     40.41% |       33085     10.17%     50.59% |       28149      8.66%     59.24% |       29881      9.19%     68.43% |       34220     10.52%     78.95% |       20995      6.46%     85.41% |       19040      5.85%     91.26% |       28409      8.74%    100.00% (Unspecified)
board.cache_hierarchy.ruby_system.L1Cache_Controller.SM.Ack::total       325198                       (Unspecified)
board.cache_hierarchy.ruby_system.L1Cache_Controller.SM.Exclusive_Data |     1160021     44.06%     44.06% |      273595     10.39%     54.45% |      422484     16.05%     70.50% |      100833      3.83%     74.32% |      129657      4.92%     79.25% |       98922      3.76%     83.01% |      342042     12.99%     96.00% |      105398      4.00%    100.00% (Unspecified)
board.cache_hierarchy.ruby_system.L1Cache_Controller.SM.Exclusive_Data::total      2632952                       (Unspecified)
board.cache_hierarchy.ruby_system.L1Cache_Controller.OM.Own_GETX |        2027     14.34%     14.34% |        1643     11.62%     25.97% |        1373      9.71%     35.68% |        1403      9.93%     45.61% |        2292     16.22%     61.82% |        2241     15.86%     77.68% |        1786     12.64%     90.31% |        1369      9.69%    100.00% (Unspecified)
board.cache_hierarchy.ruby_system.L1Cache_Controller.OM.Own_GETX::total        14134                       (Unspecified)
board.cache_hierarchy.ruby_system.L1Cache_Controller.OM.Fwd_GETX |          23     11.68%     11.68% |          26     13.20%     24.87% |          20     10.15%     35.03% |          16      8.12%     43.15% |          37     18.78%     61.93% |          28     14.21%     76.14% |          22     11.17%     87.31% |          25     12.69%    100.00% (Unspecified)
board.cache_hierarchy.ruby_system.L1Cache_Controller.OM.Fwd_GETX::total          197                       (Unspecified)
board.cache_hierarchy.ruby_system.L1Cache_Controller.OM.Fwd_GETS |          22     11.58%     11.58% |          24     12.63%     24.21% |          32     16.84%     41.05% |          17      8.95%     50.00% |          19     10.00%     60.00% |          22     11.58%     71.58% |          37     19.47%     91.05% |          17      8.95%    100.00% (Unspecified)
board.cache_hierarchy.ruby_system.L1Cache_Controller.OM.Fwd_GETS::total          190                       (Unspecified)
board.cache_hierarchy.ruby_system.L1Cache_Controller.OM.Ack |       40558     21.47%     21.47% |       26874     14.22%     35.69% |       18150      9.61%     45.29% |       14233      7.53%     52.83% |       18776      9.94%     62.76% |       29444     15.58%     78.35% |       22186     11.74%     90.09% |       18724      9.91%    100.00% (Unspecified)
board.cache_hierarchy.ruby_system.L1Cache_Controller.OM.Ack::total       188945                       (Unspecified)
board.cache_hierarchy.ruby_system.L1Cache_Controller.OM.All_acks |     3815802     30.22%     30.22% |     1380074     10.93%     41.15% |     2861280     22.66%     63.81% |      442266      3.50%     67.31% |      979976      7.76%     75.07% |      466487      3.69%     78.77% |     1996961     15.82%     94.58% |      684046      5.42%    100.00% (Unspecified)
board.cache_hierarchy.ruby_system.L1Cache_Controller.OM.All_acks::total     12626892                       (Unspecified)
board.cache_hierarchy.ruby_system.L1Cache_Controller.SI.Load |        8372     44.47%     44.47% |        3743     19.88%     64.35% |        5006     26.59%     90.94% |         249      1.32%     92.26% |         356      1.89%     94.15% |         316      1.68%     95.83% |         379      2.01%     97.84% |         406      2.16%    100.00% (Unspecified)
board.cache_hierarchy.ruby_system.L1Cache_Controller.SI.Load::total        18827                       (Unspecified)
board.cache_hierarchy.ruby_system.L1Cache_Controller.SI.Ifetch |        7492     43.52%     43.52% |        3296     19.14%     62.66% |        4654     27.03%     89.70% |         221      1.28%     90.98% |         418      2.43%     93.41% |         346      2.01%     95.42% |         376      2.18%     97.60% |         413      2.40%    100.00% (Unspecified)
board.cache_hierarchy.ruby_system.L1Cache_Controller.SI.Ifetch::total        17216                       (Unspecified)
board.cache_hierarchy.ruby_system.L1Cache_Controller.SI.Store |          35     97.22%     97.22% |           0      0.00%     97.22% |           0      0.00%     97.22% |           0      0.00%     97.22% |           0      0.00%     97.22% |           0      0.00%     97.22% |           1      2.78%    100.00% |           0      0.00%    100.00% (Unspecified)
board.cache_hierarchy.ruby_system.L1Cache_Controller.SI.Store::total           36                       (Unspecified)
board.cache_hierarchy.ruby_system.L1Cache_Controller.SI.Fwd_GETS |           2     40.00%     40.00% |           0      0.00%     40.00% |           0      0.00%     40.00% |           2     40.00%     80.00% |           0      0.00%     80.00% |           1     20.00%    100.00% |           0      0.00%    100.00% |           0      0.00%    100.00% (Unspecified)
board.cache_hierarchy.ruby_system.L1Cache_Controller.SI.Fwd_GETS::total            5                       (Unspecified)
board.cache_hierarchy.ruby_system.L1Cache_Controller.SI.Inv |           2     18.18%     18.18% |           7     63.64%     81.82% |           0      0.00%     81.82% |           0      0.00%     81.82% |           1      9.09%     90.91% |           0      0.00%     90.91% |           1      9.09%    100.00% |           0      0.00%    100.00% (Unspecified)
board.cache_hierarchy.ruby_system.L1Cache_Controller.SI.Inv::total           11                       (Unspecified)
board.cache_hierarchy.ruby_system.L1Cache_Controller.SI.Writeback_Ack |     3319739     14.19%     14.19% |     1517374      6.49%     20.68% |    14322854     61.22%     81.90% |      562212      2.40%     84.30% |      900945      3.85%     88.15% |      742276      3.17%     91.33% |      959667      4.10%     95.43% |     1069253      4.57%    100.00% (Unspecified)
board.cache_hierarchy.ruby_system.L1Cache_Controller.SI.Writeback_Ack::total     23394320                       (Unspecified)
board.cache_hierarchy.ruby_system.L1Cache_Controller.SI.Writeback_Ack_Data |     1644010     13.82%     13.82% |     1219541     10.25%     24.07% |     3141087     26.41%     50.48% |      442891      3.72%     54.20% |      628345      5.28%     59.48% |      489221      4.11%     63.59% |     3699829     31.10%     94.70% |      630852      5.30%    100.00% (Unspecified)
board.cache_hierarchy.ruby_system.L1Cache_Controller.SI.Writeback_Ack_Data::total     11895776                       (Unspecified)
board.cache_hierarchy.ruby_system.L1Cache_Controller.OI.Load |           2    100.00%    100.00% |           0      0.00%    100.00% |           0      0.00%    100.00% |           0      0.00%    100.00% |           0      0.00%    100.00% |           0      0.00%    100.00% |           0      0.00%    100.00% |           0      0.00%    100.00% (Unspecified)
board.cache_hierarchy.ruby_system.L1Cache_Controller.OI.Load::total            2                       (Unspecified)
board.cache_hierarchy.ruby_system.L1Cache_Controller.OI.Fwd_GETS |           0      0.00%      0.00% |           0      0.00%      0.00% |           0      0.00%      0.00% |           1    100.00%    100.00% |           0      0.00%    100.00% |           0      0.00%    100.00% |           0      0.00%    100.00% |           0      0.00%    100.00% (Unspecified)
board.cache_hierarchy.ruby_system.L1Cache_Controller.OI.Fwd_GETS::total            1                       (Unspecified)
board.cache_hierarchy.ruby_system.L1Cache_Controller.OI.Writeback_Ack_Data |        4465     16.63%     16.63% |        5701     21.24%     37.87% |        2885     10.75%     48.61% |        2429      9.05%     57.66% |        2542      9.47%     67.13% |        3297     12.28%     79.41% |        2165      8.06%     87.48% |        3362     12.52%    100.00% (Unspecified)
board.cache_hierarchy.ruby_system.L1Cache_Controller.OI.Writeback_Ack_Data::total        26846                       (Unspecified)
board.cache_hierarchy.ruby_system.L1Cache_Controller.MI.Load |         144     36.27%     36.27% |          42     10.58%     46.85% |         151     38.04%     84.89% |          13      3.27%     88.16% |          14      3.53%     91.69% |          11      2.77%     94.46% |          15      3.78%     98.24% |           7      1.76%    100.00% (Unspecified)
board.cache_hierarchy.ruby_system.L1Cache_Controller.MI.Load::total          397                       (Unspecified)
board.cache_hierarchy.ruby_system.L1Cache_Controller.MI.Ifetch |         127     96.95%     96.95% |           0      0.00%     96.95% |           0      0.00%     96.95% |           4      3.05%    100.00% |           0      0.00%    100.00% |           0      0.00%    100.00% |           0      0.00%    100.00% |           0      0.00%    100.00% (Unspecified)
board.cache_hierarchy.ruby_system.L1Cache_Controller.MI.Ifetch::total          131                       (Unspecified)
board.cache_hierarchy.ruby_system.L1Cache_Controller.MI.Store |          32     31.37%     31.37% |          24     23.53%     54.90% |          31     30.39%     85.29% |           3      2.94%     88.24% |           3      2.94%     91.18% |           3      2.94%     94.12% |           2      1.96%     96.08% |           4      3.92%    100.00% (Unspecified)
board.cache_hierarchy.ruby_system.L1Cache_Controller.MI.Store::total          102                       (Unspecified)
board.cache_hierarchy.ruby_system.L1Cache_Controller.MI.Fwd_GETX |           1    100.00%    100.00% |           0      0.00%    100.00% |           0      0.00%    100.00% |           0      0.00%    100.00% |           0      0.00%    100.00% |           0      0.00%    100.00% |           0      0.00%    100.00% |           0      0.00%    100.00% (Unspecified)
board.cache_hierarchy.ruby_system.L1Cache_Controller.MI.Fwd_GETX::total            1                       (Unspecified)
board.cache_hierarchy.ruby_system.L1Cache_Controller.MI.Fwd_GETS |           0      0.00%      0.00% |           1     25.00%     25.00% |           0      0.00%     25.00% |           0      0.00%     25.00% |           0      0.00%     25.00% |           2     50.00%     75.00% |           0      0.00%     75.00% |           1     25.00%    100.00% (Unspecified)
board.cache_hierarchy.ruby_system.L1Cache_Controller.MI.Fwd_GETS::total            4                       (Unspecified)
board.cache_hierarchy.ruby_system.L1Cache_Controller.MI.Writeback_Ack_Data |     4834946     30.31%     30.31% |     1781833     11.17%     41.48% |     4314164     27.04%     68.52% |      477460      2.99%     71.51% |     1091784      6.84%     78.36% |      516650      3.24%     81.59% |     2188355     13.72%     95.31% |      747861      4.69%    100.00% (Unspecified)
board.cache_hierarchy.ruby_system.L1Cache_Controller.MI.Writeback_Ack_Data::total     15953053                       (Unspecified)
board.cache_hierarchy.ruby_system.L1Cache_Controller.II.Writeback_Ack_Data |           1    100.00%    100.00% |           0      0.00%    100.00% |           0      0.00%    100.00% |           0      0.00%    100.00% |           0      0.00%    100.00% |           0      0.00%    100.00% |           0      0.00%    100.00% |           0      0.00%    100.00% (Unspecified)
board.cache_hierarchy.ruby_system.L1Cache_Controller.II.Writeback_Ack_Data::total            1                       (Unspecified)
board.cache_hierarchy.ruby_system.L1Cache_Controller.II.Writeback_Nack |           2     18.18%     18.18% |           7     63.64%     81.82% |           0      0.00%     81.82% |           0      0.00%     81.82% |           1      9.09%     90.91% |           0      0.00%     90.91% |           1      9.09%    100.00% |           0      0.00%    100.00% (Unspecified)
board.cache_hierarchy.ruby_system.L1Cache_Controller.II.Writeback_Nack::total           11                       (Unspecified)
board.cache_hierarchy.ruby_system.L2Cache_Controller.L1_GETS     43506314      0.00%      0.00% (Unspecified)
board.cache_hierarchy.ruby_system.L2Cache_Controller.L1_GETX     12637241      0.00%      0.00% (Unspecified)
board.cache_hierarchy.ruby_system.L2Cache_Controller.L1_PUTO        26845      0.00%      0.00% (Unspecified)
board.cache_hierarchy.ruby_system.L2Cache_Controller.L1_PUTX     15953063      0.00%      0.00% (Unspecified)
board.cache_hierarchy.ruby_system.L2Cache_Controller.L1_PUTS_only     27000467      0.00%      0.00% (Unspecified)
board.cache_hierarchy.ruby_system.L2Cache_Controller.L1_PUTS      8290369      0.00%      0.00% (Unspecified)
board.cache_hierarchy.ruby_system.L2Cache_Controller.Fwd_GETX        36169      0.00%      0.00% (Unspecified)
board.cache_hierarchy.ruby_system.L2Cache_Controller.Fwd_DMA        10193      0.00%      0.00% (Unspecified)
board.cache_hierarchy.ruby_system.L2Cache_Controller.Inv       133376      0.00%      0.00% (Unspecified)
board.cache_hierarchy.ruby_system.L2Cache_Controller.IntAck         1356      0.00%      0.00% (Unspecified)
board.cache_hierarchy.ruby_system.L2Cache_Controller.All_Acks      9807250      0.00%      0.00% (Unspecified)
board.cache_hierarchy.ruby_system.L2Cache_Controller.Data     22242579      0.00%      0.00% (Unspecified)
board.cache_hierarchy.ruby_system.L2Cache_Controller.Data_Exclusive         5375      0.00%      0.00% (Unspecified)
board.cache_hierarchy.ruby_system.L2Cache_Controller.L1_WBCLEANDATA     11895776      0.00%      0.00% (Unspecified)
board.cache_hierarchy.ruby_system.L2Cache_Controller.L1_WBDIRTYDATA     15979899      0.00%      0.00% (Unspecified)
board.cache_hierarchy.ruby_system.L2Cache_Controller.Writeback_Ack      9756662      0.00%      0.00% (Unspecified)
board.cache_hierarchy.ruby_system.L2Cache_Controller.Unblock     61904211      0.00%      0.00% (Unspecified)
board.cache_hierarchy.ruby_system.L2Cache_Controller.Exclusive_Unblock     17537252      0.00%      0.00% (Unspecified)
board.cache_hierarchy.ruby_system.L2Cache_Controller.DmaAck         9656      0.00%      0.00% (Unspecified)
board.cache_hierarchy.ruby_system.L2Cache_Controller.L2_Replacement     21447197      0.00%      0.00% (Unspecified)
board.cache_hierarchy.ruby_system.L2Cache_Controller.I.L1_GETS     12436644      0.00%      0.00% (Unspecified)
board.cache_hierarchy.ruby_system.L2Cache_Controller.I.L1_GETX      7260501      0.00%      0.00% (Unspecified)
board.cache_hierarchy.ruby_system.L2Cache_Controller.I.Inv       130534      0.00%      0.00% (Unspecified)
board.cache_hierarchy.ruby_system.L2Cache_Controller.ILS.L1_GETS      1442361      0.00%      0.00% (Unspecified)
board.cache_hierarchy.ruby_system.L2Cache_Controller.ILS.L1_GETX      2352362      0.00%      0.00% (Unspecified)
board.cache_hierarchy.ruby_system.L2Cache_Controller.ILS.L1_PUTS_only     10303297      0.00%      0.00% (Unspecified)
board.cache_hierarchy.ruby_system.L2Cache_Controller.ILS.L1_PUTS      1592480      0.00%      0.00% (Unspecified)
board.cache_hierarchy.ruby_system.L2Cache_Controller.ILS.Inv          725      0.00%      0.00% (Unspecified)
board.cache_hierarchy.ruby_system.L2Cache_Controller.ILX.L1_GETS      1113601      0.00%      0.00% (Unspecified)
board.cache_hierarchy.ruby_system.L2Cache_Controller.ILX.L1_GETX       458996      0.00%      0.00% (Unspecified)
board.cache_hierarchy.ruby_system.L2Cache_Controller.ILX.L1_PUTX     15953054      0.00%      0.00% (Unspecified)
board.cache_hierarchy.ruby_system.L2Cache_Controller.ILX.L1_PUTS           11      0.00%      0.00% (Unspecified)
board.cache_hierarchy.ruby_system.L2Cache_Controller.ILX.Fwd_GETX         4665      0.00%      0.00% (Unspecified)
board.cache_hierarchy.ruby_system.L2Cache_Controller.ILX.Fwd_DMA         9653      0.00%      0.00% (Unspecified)
board.cache_hierarchy.ruby_system.L2Cache_Controller.ILOX.L1_GETS        29907      0.00%      0.00% (Unspecified)
board.cache_hierarchy.ruby_system.L2Cache_Controller.ILOX.L1_GETX         2500      0.00%      0.00% (Unspecified)
board.cache_hierarchy.ruby_system.L2Cache_Controller.ILOX.L1_PUTO         8111      0.00%      0.00% (Unspecified)
board.cache_hierarchy.ruby_system.L2Cache_Controller.ILOX.Fwd_GETX          277      0.00%      0.00% (Unspecified)
board.cache_hierarchy.ruby_system.L2Cache_Controller.ILOX.Fwd_DMA            3      0.00%      0.00% (Unspecified)
board.cache_hierarchy.ruby_system.L2Cache_Controller.ILOSX.L1_GETS       482033      0.00%      0.00% (Unspecified)
board.cache_hierarchy.ruby_system.L2Cache_Controller.ILOSX.L1_GETX       245729      0.00%      0.00% (Unspecified)
board.cache_hierarchy.ruby_system.L2Cache_Controller.ILOSX.L1_PUTO        18731      0.00%      0.00% (Unspecified)
board.cache_hierarchy.ruby_system.L2Cache_Controller.ILOSX.L1_PUTX            4      0.00%      0.00% (Unspecified)
board.cache_hierarchy.ruby_system.L2Cache_Controller.ILOSX.L1_PUTS_only        40822      0.00%      0.00% (Unspecified)
board.cache_hierarchy.ruby_system.L2Cache_Controller.ILOSX.L1_PUTS        43520      0.00%      0.00% (Unspecified)
board.cache_hierarchy.ruby_system.L2Cache_Controller.ILOSX.Fwd_GETX          433      0.00%      0.00% (Unspecified)
board.cache_hierarchy.ruby_system.L2Cache_Controller.S.L1_GETS     16990032      0.00%      0.00% (Unspecified)
board.cache_hierarchy.ruby_system.L2Cache_Controller.S.L1_GETX        77091      0.00%      0.00% (Unspecified)
board.cache_hierarchy.ruby_system.L2Cache_Controller.S.Inv         1977      0.00%      0.00% (Unspecified)
board.cache_hierarchy.ruby_system.L2Cache_Controller.S.L2_Replacement      9877595      0.00%      0.00% (Unspecified)
board.cache_hierarchy.ruby_system.L2Cache_Controller.OLSX.L1_GETS        36967      0.00%      0.00% (Unspecified)
board.cache_hierarchy.ruby_system.L2Cache_Controller.OLSX.L1_GETX         5820      0.00%      0.00% (Unspecified)
board.cache_hierarchy.ruby_system.L2Cache_Controller.OLSX.L1_PUTS_only         6924      0.00%      0.00% (Unspecified)
board.cache_hierarchy.ruby_system.L2Cache_Controller.OLSX.L1_PUTS        28410      0.00%      0.00% (Unspecified)
board.cache_hierarchy.ruby_system.L2Cache_Controller.OLSX.Fwd_GETX           16      0.00%      0.00% (Unspecified)
board.cache_hierarchy.ruby_system.L2Cache_Controller.OLSX.L2_Replacement         5903      0.00%      0.00% (Unspecified)
board.cache_hierarchy.ruby_system.L2Cache_Controller.SLS.L1_GETS      6816098      0.00%      0.00% (Unspecified)
board.cache_hierarchy.ruby_system.L2Cache_Controller.SLS.L1_GETX       115982      0.00%      0.00% (Unspecified)
board.cache_hierarchy.ruby_system.L2Cache_Controller.SLS.L1_PUTS_only     16649408      0.00%      0.00% (Unspecified)
board.cache_hierarchy.ruby_system.L2Cache_Controller.SLS.L1_PUTS      6625236      0.00%      0.00% (Unspecified)
board.cache_hierarchy.ruby_system.L2Cache_Controller.SLS.Inv          140      0.00%      0.00% (Unspecified)
board.cache_hierarchy.ruby_system.L2Cache_Controller.SLS.L2_Replacement      1812920      0.00%      0.00% (Unspecified)
board.cache_hierarchy.ruby_system.L2Cache_Controller.M.L1_GETS      4072608      0.00%      0.00% (Unspecified)
board.cache_hierarchy.ruby_system.L2Cache_Controller.M.L1_GETX      2107911      0.00%      0.00% (Unspecified)
board.cache_hierarchy.ruby_system.L2Cache_Controller.M.Fwd_GETX        30778      0.00%      0.00% (Unspecified)
board.cache_hierarchy.ruby_system.L2Cache_Controller.M.Fwd_DMA          537      0.00%      0.00% (Unspecified)
board.cache_hierarchy.ruby_system.L2Cache_Controller.M.L2_Replacement      9750759      0.00%      0.00% (Unspecified)
board.cache_hierarchy.ruby_system.L2Cache_Controller.IFGX.Data_Exclusive         4942      0.00%      0.00% (Unspecified)
board.cache_hierarchy.ruby_system.L2Cache_Controller.IFGXX.IntAck          189      0.00%      0.00% (Unspecified)
board.cache_hierarchy.ruby_system.L2Cache_Controller.IFGXX.Data_Exclusive          433      0.00%      0.00% (Unspecified)
board.cache_hierarchy.ruby_system.L2Cache_Controller.IFGXXD.IntAck          255      0.00%      0.00% (Unspecified)
board.cache_hierarchy.ruby_system.L2Cache_Controller.IFGXXD.All_Acks          433      0.00%      0.00% (Unspecified)
board.cache_hierarchy.ruby_system.L2Cache_Controller.OLSF.IntAck           16      0.00%      0.00% (Unspecified)
board.cache_hierarchy.ruby_system.L2Cache_Controller.OLSF.All_Acks           16      0.00%      0.00% (Unspecified)
board.cache_hierarchy.ruby_system.L2Cache_Controller.ILOXW.L1_PUTO            2      0.00%      0.00% (Unspecified)
board.cache_hierarchy.ruby_system.L2Cache_Controller.ILOXW.L1_WBDIRTYDATA         8111      0.00%      0.00% (Unspecified)
board.cache_hierarchy.ruby_system.L2Cache_Controller.ILOXW.Unblock        40822      0.00%      0.00% (Unspecified)
board.cache_hierarchy.ruby_system.L2Cache_Controller.ILOSXW.L1_GETX            2      0.00%      0.00% (Unspecified)
board.cache_hierarchy.ruby_system.L2Cache_Controller.ILOSXW.L1_PUTS            1      0.00%      0.00% (Unspecified)
board.cache_hierarchy.ruby_system.L2Cache_Controller.ILOSXW.L1_WBDIRTYDATA        18735      0.00%      0.00% (Unspecified)
board.cache_hierarchy.ruby_system.L2Cache_Controller.ILOSXW.Unblock        43520      0.00%      0.00% (Unspecified)
board.cache_hierarchy.ruby_system.L2Cache_Controller.ILSW.L1_GETS            6      0.00%      0.00% (Unspecified)
board.cache_hierarchy.ruby_system.L2Cache_Controller.ILSW.L1_GETX            2      0.00%      0.00% (Unspecified)
board.cache_hierarchy.ruby_system.L2Cache_Controller.ILSW.L1_PUTS          300      0.00%      0.00% (Unspecified)
board.cache_hierarchy.ruby_system.L2Cache_Controller.ILSW.L1_WBCLEANDATA      1592480      0.00%      0.00% (Unspecified)
board.cache_hierarchy.ruby_system.L2Cache_Controller.IW.L1_GETS            1      0.00%      0.00% (Unspecified)
board.cache_hierarchy.ruby_system.L2Cache_Controller.IW.L1_WBCLEANDATA     10303296      0.00%      0.00% (Unspecified)
board.cache_hierarchy.ruby_system.L2Cache_Controller.ILXW.L1_GETS            6      0.00%      0.00% (Unspecified)
board.cache_hierarchy.ruby_system.L2Cache_Controller.ILXW.L1_GETX            2      0.00%      0.00% (Unspecified)
board.cache_hierarchy.ruby_system.L2Cache_Controller.ILXW.L1_WBDIRTYDATA     15953053      0.00%      0.00% (Unspecified)
board.cache_hierarchy.ruby_system.L2Cache_Controller.ILXW.Unblock            1      0.00%      0.00% (Unspecified)
board.cache_hierarchy.ruby_system.L2Cache_Controller.SLSW.L1_GETS          113      0.00%      0.00% (Unspecified)
board.cache_hierarchy.ruby_system.L2Cache_Controller.SLSW.L1_PUTS          297      0.00%      0.00% (Unspecified)
board.cache_hierarchy.ruby_system.L2Cache_Controller.SLSW.Unblock      6625236      0.00%      0.00% (Unspecified)
board.cache_hierarchy.ruby_system.L2Cache_Controller.SLSW.L2_Replacement           10      0.00%      0.00% (Unspecified)
board.cache_hierarchy.ruby_system.L2Cache_Controller.SW.L1_GETS           18      0.00%      0.00% (Unspecified)
board.cache_hierarchy.ruby_system.L2Cache_Controller.SW.Unblock     16649408      0.00%      0.00% (Unspecified)
board.cache_hierarchy.ruby_system.L2Cache_Controller.SW.L2_Replacement           10      0.00%      0.00% (Unspecified)
board.cache_hierarchy.ruby_system.L2Cache_Controller.OXW.Unblock         6924      0.00%      0.00% (Unspecified)
board.cache_hierarchy.ruby_system.L2Cache_Controller.OLSXW.L1_GETS            1      0.00%      0.00% (Unspecified)
board.cache_hierarchy.ruby_system.L2Cache_Controller.OLSXW.L1_PUTS            1      0.00%      0.00% (Unspecified)
board.cache_hierarchy.ruby_system.L2Cache_Controller.OLSXW.Unblock        28410      0.00%      0.00% (Unspecified)
board.cache_hierarchy.ruby_system.L2Cache_Controller.IFLS.L1_GETS         4600      0.00%      0.00% (Unspecified)
board.cache_hierarchy.ruby_system.L2Cache_Controller.IFLS.L1_GETX           95      0.00%      0.00% (Unspecified)
board.cache_hierarchy.ruby_system.L2Cache_Controller.IFLS.L1_PUTS_only            5      0.00%      0.00% (Unspecified)
board.cache_hierarchy.ruby_system.L2Cache_Controller.IFLS.L1_PUTS            9      0.00%      0.00% (Unspecified)
board.cache_hierarchy.ruby_system.L2Cache_Controller.IFLS.Unblock      1442361      0.00%      0.00% (Unspecified)
board.cache_hierarchy.ruby_system.L2Cache_Controller.IFLOX.L1_GETS            3      0.00%      0.00% (Unspecified)
board.cache_hierarchy.ruby_system.L2Cache_Controller.IFLOX.Unblock        29907      0.00%      0.00% (Unspecified)
board.cache_hierarchy.ruby_system.L2Cache_Controller.IFLOX.Exclusive_Unblock         5820      0.00%      0.00% (Unspecified)
board.cache_hierarchy.ruby_system.L2Cache_Controller.IFLOXX.L1_GETS        52640      0.00%      0.00% (Unspecified)
board.cache_hierarchy.ruby_system.L2Cache_Controller.IFLOXX.L1_GETX         7016      0.00%      0.00% (Unspecified)
board.cache_hierarchy.ruby_system.L2Cache_Controller.IFLOXX.L1_PUTX            5      0.00%      0.00% (Unspecified)
board.cache_hierarchy.ruby_system.L2Cache_Controller.IFLOXX.Unblock       275849      0.00%      0.00% (Unspecified)
board.cache_hierarchy.ruby_system.L2Cache_Controller.IFLOXX.Exclusive_Unblock      1299248      0.00%      0.00% (Unspecified)
board.cache_hierarchy.ruby_system.L2Cache_Controller.IFLOSX.L1_GETS          819      0.00%      0.00% (Unspecified)
board.cache_hierarchy.ruby_system.L2Cache_Controller.IFLOSX.L1_GETX          644      0.00%      0.00% (Unspecified)
board.cache_hierarchy.ruby_system.L2Cache_Controller.IFLOSX.L1_PUTO            1      0.00%      0.00% (Unspecified)
board.cache_hierarchy.ruby_system.L2Cache_Controller.IFLOSX.L1_PUTS            3      0.00%      0.00% (Unspecified)
board.cache_hierarchy.ruby_system.L2Cache_Controller.IFLOSX.Unblock       482033      0.00%      0.00% (Unspecified)
board.cache_hierarchy.ruby_system.L2Cache_Controller.IFLXO.L1_GETS         3881      0.00%      0.00% (Unspecified)
board.cache_hierarchy.ruby_system.L2Cache_Controller.IFLXO.L1_GETX          683      0.00%      0.00% (Unspecified)
board.cache_hierarchy.ruby_system.L2Cache_Controller.IFLXO.Exclusive_Unblock       245729      0.00%      0.00% (Unspecified)
board.cache_hierarchy.ruby_system.L2Cache_Controller.IGS.L1_GETS        22636      0.00%      0.00% (Unspecified)
board.cache_hierarchy.ruby_system.L2Cache_Controller.IGS.L1_GETX            9      0.00%      0.00% (Unspecified)
board.cache_hierarchy.ruby_system.L2Cache_Controller.IGS.Data     12436643      0.00%      0.00% (Unspecified)
board.cache_hierarchy.ruby_system.L2Cache_Controller.IGS.Unblock     12436643      0.00%      0.00% (Unspecified)
board.cache_hierarchy.ruby_system.L2Cache_Controller.IGM.L1_GETS           13      0.00%      0.00% (Unspecified)
board.cache_hierarchy.ruby_system.L2Cache_Controller.IGM.L1_GETX          581      0.00%      0.00% (Unspecified)
board.cache_hierarchy.ruby_system.L2Cache_Controller.IGM.Data      7337592      0.00%      0.00% (Unspecified)
board.cache_hierarchy.ruby_system.L2Cache_Controller.IGMLS.L1_GETS          230      0.00%      0.00% (Unspecified)
board.cache_hierarchy.ruby_system.L2Cache_Controller.IGMLS.L1_GETX         1271      0.00%      0.00% (Unspecified)
board.cache_hierarchy.ruby_system.L2Cache_Controller.IGMLS.L1_PUTS           10      0.00%      0.00% (Unspecified)
board.cache_hierarchy.ruby_system.L2Cache_Controller.IGMLS.Data      2468344      0.00%      0.00% (Unspecified)
board.cache_hierarchy.ruby_system.L2Cache_Controller.IGMO.All_Acks      9805936      0.00%      0.00% (Unspecified)
board.cache_hierarchy.ruby_system.L2Cache_Controller.IGMOU.L1_GETS           13      0.00%      0.00% (Unspecified)
board.cache_hierarchy.ruby_system.L2Cache_Controller.IGMOU.L1_GETX           28      0.00%      0.00% (Unspecified)
board.cache_hierarchy.ruby_system.L2Cache_Controller.IGMOU.L1_PUTS            1      0.00%      0.00% (Unspecified)
board.cache_hierarchy.ruby_system.L2Cache_Controller.IGMOU.Exclusive_Unblock      9805936      0.00%      0.00% (Unspecified)
board.cache_hierarchy.ruby_system.L2Cache_Controller.II.IntAck          896      0.00%      0.00% (Unspecified)
board.cache_hierarchy.ruby_system.L2Cache_Controller.II.All_Acks          865      0.00%      0.00% (Unspecified)
board.cache_hierarchy.ruby_system.L2Cache_Controller.MM.Exclusive_Unblock      2107911      0.00%      0.00% (Unspecified)
board.cache_hierarchy.ruby_system.L2Cache_Controller.SS.L1_GETS          453      0.00%      0.00% (Unspecified)
board.cache_hierarchy.ruby_system.L2Cache_Controller.SS.Unblock     16990032      0.00%      0.00% (Unspecified)
board.cache_hierarchy.ruby_system.L2Cache_Controller.OO.L1_GETS            8      0.00%      0.00% (Unspecified)
board.cache_hierarchy.ruby_system.L2Cache_Controller.OO.Exclusive_Unblock      4072608      0.00%      0.00% (Unspecified)
board.cache_hierarchy.ruby_system.L2Cache_Controller.OLSXS.L1_GETS            2      0.00%      0.00% (Unspecified)
board.cache_hierarchy.ruby_system.L2Cache_Controller.OLSXS.L1_GETX            1      0.00%      0.00% (Unspecified)
board.cache_hierarchy.ruby_system.L2Cache_Controller.OLSXS.L1_PUTS_only            1      0.00%      0.00% (Unspecified)
board.cache_hierarchy.ruby_system.L2Cache_Controller.OLSXS.L1_PUTS            1      0.00%      0.00% (Unspecified)
board.cache_hierarchy.ruby_system.L2Cache_Controller.OLSXS.Unblock        36967      0.00%      0.00% (Unspecified)
board.cache_hierarchy.ruby_system.L2Cache_Controller.SLSS.L1_GETS          607      0.00%      0.00% (Unspecified)
board.cache_hierarchy.ruby_system.L2Cache_Controller.SLSS.L1_PUTS_only           10      0.00%      0.00% (Unspecified)
board.cache_hierarchy.ruby_system.L2Cache_Controller.SLSS.L1_PUTS           89      0.00%      0.00% (Unspecified)
board.cache_hierarchy.ruby_system.L2Cache_Controller.SLSS.Unblock      6816098      0.00%      0.00% (Unspecified)
board.cache_hierarchy.ruby_system.L2Cache_Controller.MI.L1_GETS           13      0.00%      0.00% (Unspecified)
board.cache_hierarchy.ruby_system.L2Cache_Controller.MI.L1_GETX           15      0.00%      0.00% (Unspecified)
board.cache_hierarchy.ruby_system.L2Cache_Controller.MI.Writeback_Ack      9750759      0.00%      0.00% (Unspecified)
board.cache_hierarchy.ruby_system.L2Cache_Controller.OLSI.Writeback_Ack         5903      0.00%      0.00% (Unspecified)
board.cache_hierarchy.ruby_system.L2Cache_Controller.ILXD.DmaAck         9653      0.00%      0.00% (Unspecified)
[...]
board.processor.cores7.core.fetch.nisnDist::5     10798964      2.82%     81.39% # Number of instructions fetched each cycle (Total) (Count)
board.processor.cores7.core.fetch.nisnDist::6      8547862      2.23%     83.62% # Number of instructions fetched each cycle (Total) (Count)
board.processor.cores7.core.fetch.nisnDist::7      5605349      1.46%     85.09% # Number of instructions fetched each cycle (Total) (Count)
board.processor.cores7.core.fetch.nisnDist::8     57079934     14.91%    100.00% # Number of instructions fetched each cycle (Total) (Count)
board.processor.cores7.core.fetch.nisnDist::overflows            0      0.00%    100.00% # Number of instructions fetched each cycle (Total) (Count)
board.processor.cores7.core.fetch.nisnDist::min_value            0                       # Number of instructions fetched each cycle (Total) (Count)
board.processor.cores7.core.fetch.nisnDist::max_value            8                       # Number of instructions fetched each cycle (Total) (Count)
board.processor.cores7.core.fetch.nisnDist::total    382764851                       # Number of instructions fetched each cycle (Total) (Count)
board.processor.cores7.core.fetchStats0.numInsts    295574400                       # Number of instructions fetched (thread level) (Count)
board.processor.cores7.core.fetchStats0.numOps            0                       # Number of ops (including micro ops) fetched (thread level) (Count)
board.processor.cores7.core.fetchStats0.fetchRate     0.733447                       # Number of inst fetches per cycle ((Count/Cycle))
board.processor.cores7.core.fetchStats0.numBranches     87138153                       # Number of branches fetched (Count)
board.processor.cores7.core.fetchStats0.branchRate     0.216227                       # Number of branch fetches per cycle (Ratio)
board.processor.cores7.core.fetchStats0.icacheStallCycles     60826500                       # ICache total stall cycles (Cycle)
board.processor.cores7.core.fetchStats0.numFetchSuspends            0                       # Number of times Execute suspended instruction fetching (Count)
board.processor.cores7.core.iew.idleCycles            0                       # Number of cycles IEW is idle (Cycle)
board.processor.cores7.core.iew.squashCycles      3412202                       # Number of cycles IEW is squashing (Cycle)
board.processor.cores7.core.iew.blockCycles     49718988                       # Number of cycles IEW is blocking (Cycle)
board.processor.cores7.core.iew.unblockCycles     19057596                       # Number of cycles IEW is unblocking (Cycle)
board.processor.cores7.core.iew.dispatchedInsts    577097027                       # Number of instructions dispatched to IQ (Count)
board.processor.cores7.core.iew.dispSquashedInsts       608745                       # Number of squashed instructions skipped by dispatch (Count)
board.processor.cores7.core.iew.dispLoadInsts     72202196                       # Number of dispatched load instructions (Count)
board.processor.cores7.core.iew.dispStoreInsts     49448229                       # Number of dispatched store instructions (Count)
board.processor.cores7.core.iew.dispNonSpecInsts      2481207                       # Number of dispatched non-speculative instructions (Count)
board.processor.cores7.core.iew.iqFullEvents       510616                       # Number of times the IQ has become full, causing a stall (Count)
board.processor.cores7.core.iew.lsqFullEvents     18183091                       # Number of times the LSQ has become full, causing a stall (Count)
board.processor.cores7.core.iew.memOrderViolationEvents       423856                       # Number of memory order violations (Count)
board.processor.cores7.core.iew.predictedTakenIncorrect      1139503                       # Number of branches that were predicted taken incorrectly (Count)
board.processor.cores7.core.iew.predictedNotTakenIncorrect      2163451                       # Number of branches that were predicted not taken incorrectly (Count)
board.processor.cores7.core.iew.branchMispredicts      3302954                       # Number of branch mispredicts detected at execute (Count)
board.processor.cores7.core.iew.instsToCommit    535402322                       # Cumulative count of insts sent to commit (Count)
board.processor.cores7.core.iew.writebackCount    534076737                       # Cumulative count of insts written-back (Count)
board.processor.cores7.core.iew.producerInst    357641762                       # Number of instructions producing a value (Count)
board.processor.cores7.core.iew.consumerInst    598973288                       # Number of instructions consuming a value (Count)
board.processor.cores7.core.iew.wbRate       1.325273                       # Insts written-back per cycle ((Count/Cycle))
board.processor.cores7.core.iew.wbFanout     0.597091                       # Average fanout of values written-back ((Count/Count))
board.processor.cores7.core.interrupts.clk_domain.clock         5328                       # Clock period in ticks (Tick)
board.processor.cores7.core.lsq0.forwLoads      7967166                       # Number of loads that had data forwarded from stores (Count)
board.processor.cores7.core.lsq0.squashedLoads     13354794                       # Number of loads squashed (Count)
board.processor.cores7.core.lsq0.ignoredResponses        40183                       # Number of memory responses ignored because the instruction is squashed (Count)
board.processor.cores7.core.lsq0.memOrderViolation       423856                       # Number of memory ordering violations (Count)
board.processor.cores7.core.lsq0.squashedStores      8379259                       # Number of stores squashed (Count)
board.processor.cores7.core.lsq0.rescheduledLoads        39490                       # Number of loads that were rescheduled (Count)
board.processor.cores7.core.lsq0.blockedByCache        46598                       # Number of times an access to memory failed due to the cache being blocked (Count)
board.processor.cores7.core.lsq0.loadToUse::samples     58806381                       # Distribution of cycle latency between the first time a load is issued and its completion (Unspecified)
board.processor.cores7.core.lsq0.loadToUse::mean     7.446103                       # Distribution of cycle latency between the first time a load is issued and its completion (Unspecified)
board.processor.cores7.core.lsq0.loadToUse::stdev    37.307829                       # Distribution of cycle latency between the first time a load is issued and its completion (Unspecified)
board.processor.cores7.core.lsq0.loadToUse::0-9     56534205     96.14%     96.14% # Distribution of cycle latency between the first time a load is issued and its completion (Unspecified)
board.processor.cores7.core.lsq0.loadToUse::10-19       823821      1.40%     97.54% # Distribution of cycle latency between the first time a load is issued and its completion (Unspecified)
board.processor.cores7.core.lsq0.loadToUse::20-29       258712      0.44%     97.98% # Distribution of cycle latency between the first time a load is issued and its completion (Unspecified)
board.processor.cores7.core.lsq0.loadToUse::30-39        63525      0.11%     98.09% # Distribution of cycle latency between the first time a load is issued and its completion (Unspecified)
board.processor.cores7.core.lsq0.loadToUse::40-49        24648      0.04%     98.13% # Distribution of cycle latency between the first time a load is issued and its completion (Unspecified)
board.processor.cores7.core.lsq0.loadToUse::50-59        14386      0.02%     98.15% # Distribution of cycle latency between the first time a load is issued and its completion (Unspecified)
board.processor.cores7.core.lsq0.loadToUse::60-69         9837      0.02%     98.17% # Distribution of cycle latency between the first time a load is issued and its completion (Unspecified)
board.processor.cores7.core.lsq0.loadToUse::70-79         8452      0.01%     98.18% # Distribution of cycle latency between the first time a load is issued and its completion (Unspecified)
board.processor.cores7.core.lsq0.loadToUse::80-89        10715      0.02%     98.20% # Distribution of cycle latency between the first time a load is issued and its completion (Unspecified)
board.processor.cores7.core.lsq0.loadToUse::90-99        13680      0.02%     98.22% # Distribution of cycle latency between the first time a load is issued and its completion (Unspecified)
board.processor.cores7.core.lsq0.loadToUse::100-109        13928      0.02%     98.25% # Distribution of cycle latency between the first time a load is issued and its completion (Unspecified)
board.processor.cores7.core.lsq0.loadToUse::110-119        36674      0.06%     98.31% # Distribution of cycle latency between the first time a load is issued and its completion (Unspecified)
board.processor.cores7.core.lsq0.loadToUse::120-129        44513      0.08%     98.39% # Distribution of cycle latency between the first time a load is issued and its completion (Unspecified)
board.processor.cores7.core.lsq0.loadToUse::130-139       120222      0.20%     98.59% # Distribution of cycle latency between the first time a load is issued and its completion (Unspecified)
board.processor.cores7.core.lsq0.loadToUse::140-149       157529      0.27%     98.86% # Distribution of cycle latency between the first time a load is issued and its completion (Unspecified)
board.processor.cores7.core.lsq0.loadToUse::150-159        50469      0.09%     98.94% # Distribution of cycle latency between the first time a load is issued and its completion (Unspecified)
board.processor.cores7.core.lsq0.loadToUse::160-169        21067      0.04%     98.98% # Distribution of cycle latency between the first time a load is issued and its completion (Unspecified)
board.processor.cores7.core.lsq0.loadToUse::170-179        22603      0.04%     99.02% # Distribution of cycle latency between the first time a load is issued and its completion (Unspecified)
board.processor.cores7.core.lsq0.loadToUse::180-189        48229      0.08%     99.10% # Distribution of cycle latency between the first time a load is issued and its completion (Unspecified)
board.processor.cores7.core.lsq0.loadToUse::190-199        26236      0.04%     99.14% # Distribution of cycle latency between the first time a load is issued and its completion (Unspecified)
board.processor.cores7.core.lsq0.loadToUse::200-209        21802      0.04%     99.18% # Distribution of cycle latency between the first time a load is issued and its completion (Unspecified)
board.processor.cores7.core.lsq0.loadToUse::210-219        27478      0.05%     99.23% # Distribution of cycle latency between the first time a load is issued and its completion (Unspecified)
board.processor.cores7.core.lsq0.loadToUse::220-229        88574      0.15%     99.38% # Distribution of cycle latency between the first time a load is issued and its completion (Unspecified)
board.processor.cores7.core.lsq0.loadToUse::230-239        46947      0.08%     99.46% # Distribution of cycle latency between the first time a load is issued and its completion (Unspecified)
board.processor.cores7.core.lsq0.loadToUse::240-249        29734      0.05%     99.51% # Distribution of cycle latency between the first time a load is issued and its completion (Unspecified)
board.processor.cores7.core.lsq0.loadToUse::250-259        21365      0.04%     99.55% # Distribution of cycle latency between the first time a load is issued and its completion (Unspecified)
board.processor.cores7.core.lsq0.loadToUse::260-269        20295      0.03%     99.58% # Distribution of cycle latency between the first time a load is issued and its completion (Unspecified)
board.processor.cores7.core.lsq0.loadToUse::270-279        19730      0.03%     99.61% # Distribution of cycle latency between the first time a load is issued and its completion (Unspecified)
board.processor.cores7.core.lsq0.loadToUse::280-289        16130      0.03%     99.64% # Distribution of cycle latency between the first time a load is issued and its completion (Unspecified)
board.processor.cores7.core.lsq0.loadToUse::290-299        12650      0.02%     99.66% # Distribution of cycle latency between the first time a load is issued and its completion (Unspecified)
board.processor.cores7.core.lsq0.loadToUse::overflows       198225      0.34%    100.00% # Distribution of cycle latency between the first time a load is issued and its completion (Unspecified)
board.processor.cores7.core.lsq0.loadToUse::min_value            2                       # Distribution of cycle latency between the first time a load is issued and its completion (Unspecified)
board.processor.cores7.core.lsq0.loadToUse::max_value         3440                       # Distribution of cycle latency between the first time a load is issued and its completion (Unspecified)
board.processor.cores7.core.lsq0.loadToUse::total     58806381                       # Distribution of cycle latency between the first time a load is issued and its completion (Unspecified)
board.processor.cores7.core.mmu.dtb.rdAccesses     67717935                       # TLB accesses on read requests (Count)
board.processor.cores7.core.mmu.dtb.wrAccesses     45302707                       # TLB accesses on write requests (Count)
board.processor.cores7.core.mmu.dtb.rdMisses       675683                       # TLB misses on read requests (Count)
board.processor.cores7.core.mmu.dtb.wrMisses       197549                       # TLB misses on write requests (Count)
board.processor.cores7.core.mmu.dtb.walker.power_state.pwrStateResidencyTicks::UNDEFINED 13539278426076                       # Cumulative time (in ticks) in various power states (Tick)
board.processor.cores7.core.mmu.itb.rdAccesses            0                       # TLB accesses on read requests (Count)
board.processor.cores7.core.mmu.itb.wrAccesses     46202448                       # TLB accesses on write requests (Count)
board.processor.cores7.core.mmu.itb.rdMisses            0                       # TLB misses on read requests (Count)
board.processor.cores7.core.mmu.itb.wrMisses       134218                       # TLB misses on write requests (Count)
board.processor.cores7.core.mmu.itb.walker.power_state.pwrStateResidencyTicks::UNDEFINED 13539278426076                       # Cumulative time (in ticks) in various power states (Tick)
board.processor.cores7.core.power_state.numTransitions        26720                       # Number of power state transitions (Count)
board.processor.cores7.core.power_state.ticksClkGated::samples        13361                       # Distribution of time spent in the clock gated state (Tick)
board.processor.cores7.core.power_state.ticksClkGated::mean 1003299588.181648                       # Distribution of time spent in the clock gated state (Tick)
board.processor.cores7.core.power_state.ticksClkGated::stdev 4645747636.253794                       # Distribution of time spent in the clock gated state (Tick)
board.processor.cores7.core.power_state.ticksClkGated::1000-5e+10        13360     99.99%     99.99% # Distribution of time spent in the clock gated state (Tick)
board.processor.cores7.core.power_state.ticksClkGated::5e+11-5.5e+11            1      0.01%    100.00% # Distribution of time spent in the clock gated state (Tick)
board.processor.cores7.core.power_state.ticksClkGated::min_value       177157                       # Distribution of time spent in the clock gated state (Tick)
board.processor.cores7.core.power_state.ticksClkGated::max_value 536967641521                       # Distribution of time spent in the clock gated state (Tick)
board.processor.cores7.core.power_state.ticksClkGated::total        13361                       # Distribution of time spent in the clock gated state (Tick)
board.processor.cores7.core.power_state.pwrStateResidencyTicks::ON 134192628381                       # Cumulative time (in ticks) in various power states (Tick)
board.processor.cores7.core.power_state.pwrStateResidencyTicks::CLK_GATED 13405085797695                       # Cumulative time (in ticks) in various power states (Tick)
board.processor.cores7.core.rename.squashCycles      3412202                       # Number of cycles rename is squashing (Cycle)
board.processor.cores7.core.rename.idleCycles     66770550                       # Number of cycles rename is idle (Cycle)
board.processor.cores7.core.rename.blockCycles     82370626                       # Number of cycles rename is blocking (Cycle)
board.processor.cores7.core.rename.serializeStallCycles     48398929                       # count of cycles rename stalled for serializing inst (Cycle)
board.processor.cores7.core.rename.runCycles     85265791                       # Number of cycles rename is running (Cycle)
board.processor.cores7.core.rename.unblockCycles     96546753                       # Number of cycles rename is unblocking (Cycle)
board.processor.cores7.core.rename.renamedInsts    593993280                       # Number of instructions processed by rename (Count)
board.processor.cores7.core.rename.ROBFullEvents      3142496                       # Number of times rename has blocked due to ROB full (Count)
board.processor.cores7.core.rename.IQFullEvents     11176172                       # Number of times rename has blocked due to IQ full (Count)
board.processor.cores7.core.rename.LQFullEvents      4241529                       # Number of times rename has blocked due to LQ full (Count)
board.processor.cores7.core.rename.SQFullEvents     77536898                       # Number of times rename has blocked due to SQ full (Count)
board.processor.cores7.core.rename.fullRegistersEvents          365                       # Number of times there has been no free registers (Count)
board.processor.cores7.core.rename.renamedOperands    939665462                       # Number of destination operands rename has renamed (Count)
board.processor.cores7.core.rename.lookups   1940381362                       # Number of register rename lookups that rename has made (Count)
board.processor.cores7.core.rename.intLookups    745060209                       # Number of integer rename lookups (Count)
board.processor.cores7.core.rename.fpLookups     15832516                       # Number of floating rename lookups (Count)
board.processor.cores7.core.rename.committedMaps    754892936                       # Number of HB maps that are committed (Count)
board.processor.cores7.core.rename.undoneMaps    184772526                       # Number of HB maps that are undone due to squashing (Count)
board.processor.cores7.core.rename.serializing      2187493                       # count of serializing insts renamed (Count)
board.processor.cores7.core.rename.tempSerializing      1691636                       # count of temporary serializing insts renamed (Count)
board.processor.cores7.core.rename.skidInsts     75356568                       # count of insts added to the skid buffer (Count)
board.processor.cores7.core.rob.reads       918211163                       # The number of ROB reads (Count)
board.processor.cores7.core.rob.writes     1167041282                       # The number of ROB writes (Count)
board.processor.cores7.core.thread_0.numInsts    202383046                       # Number of Instructions committed (Count)
board.processor.cores7.core.thread_0.numOps    473394612                       # Number of Ops committed (Count)
board.processor.cores7.core.thread_0.numMemRefs            0                       # Number of Memory References (Count)
board.workload.inst.arm                             0                       # number of arm instructions executed (Count)
board.workload.inst.quiesce                         0                       # number of quiesce instructions executed (Count)

---------- End Simulation Statistics   ----------
