
---------- Begin Simulation Statistics ----------
simSeconds                                  13.803193                       # Number of seconds simulated (Second)
simTicks                                 13803192525465                       # Number of ticks simulated (Tick)
finalTick                                13803192525465                       # Number of ticks from beginning of simulation (restored from checkpoints and never reset) (Tick)
simFreq                                  1000000000000                       # The number of ticks per simulated second ((Tick/Second))
hostSeconds                                 140467.64                       # Real time elapsed on the host (Second)
hostTickRate                                 98265998                       # The number of ticks simulated per host second (ticks/s) ((Tick/Second))
hostMemory                                   29962440                       # Number of bytes of host memory used (Byte)
simInsts                                   5927982610                       # Number of instructions simulated (Count)
simOps                                    13143672491                       # Number of ops (including micro ops) simulated (Count)
hostInstRate                                    42202                       # Simulator instruction rate (inst/s) ((Count/Second))
hostOpRate                                      93571                       # Simulator op (including micro ops) rate (op/s) ((Count/Second))
board.cache_hierarchy.ruby_system.m_outstandReqHistSeqr::bucket_size            2                       (Unspecified)
board.cache_hierarchy.ruby_system.m_outstandReqHistSeqr::max_bucket           19                       (Unspecified)
board.cache_hierarchy.ruby_system.m_outstandReqHistSeqr::samples   3140113030                       (Unspecified)
board.cache_hierarchy.ruby_system.m_outstandReqHistSeqr::mean     1.697628                       (Unspecified)
board.cache_hierarchy.ruby_system.m_outstandReqHistSeqr::gmean     1.421676                       (Unspecified)
board.cache_hierarchy.ruby_system.m_outstandReqHistSeqr::stdev     1.460611                       (Unspecified)
board.cache_hierarchy.ruby_system.m_outstandReqHistSeqr |  1974594669     62.88%     62.88% |   964311055     30.71%     93.59% |   132457966      4.22%     97.81% |    30578258      0.97%     98.78% |    13546388      0.43%     99.22% |     9098512      0.29%     99.51% |     6889283      0.22%     99.72% |     5443457      0.17%     99.90% |     3193442      0.10%    100.00% |           0      0.00%    100.00% (Unspecified)
board.cache_hierarchy.ruby_system.m_outstandReqHistSeqr::total   3140113030                       (Unspecified)
board.cache_hierarchy.ruby_system.m_latencyHistSeqr::bucket_size          512                       (Unspecified)
board.cache_hierarchy.ruby_system.m_latencyHistSeqr::max_bucket         5119                       (Unspecified)
board.cache_hierarchy.ruby_system.m_latencyHistSeqr::samples   3152458355                       (Unspecified)
board.cache_hierarchy.ruby_system.m_latencyHistSeqr::mean     3.313575                       (Unspecified)
board.cache_hierarchy.ruby_system.m_latencyHistSeqr::gmean     1.104432                       (Unspecified)
board.cache_hierarchy.ruby_system.m_latencyHistSeqr::stdev    24.572667                       (Unspecified)
board.cache_hierarchy.ruby_system.m_latencyHistSeqr |  3151337410     99.96%     99.96% |     1036271      0.03%    100.00% |       79172      0.00%    100.00% |        5183      0.00%    100.00% |         261      0.00%    100.00% |          56      0.00%    100.00% |           0      0.00%    100.00% |           2      0.00%    100.00% |           0      0.00%    100.00% |           0      0.00%    100.00% (Unspecified)
board.cache_hierarchy.ruby_system.m_latencyHistSeqr::total   3152458355                       (Unspecified)
board.cache_hierarchy.ruby_system.m_hitLatencyHistSeqr::bucket_size          128                       (Unspecified)
board.cache_hierarchy.ruby_system.m_hitLatencyHistSeqr::max_bucket         1279                       (Unspecified)
board.cache_hierarchy.ruby_system.m_hitLatencyHistSeqr::samples   3065850703                       (Unspecified)
board.cache_hierarchy.ruby_system.m_hitLatencyHistSeqr::mean     1.005176                       (Unspecified)
board.cache_hierarchy.ruby_system.m_hitLatencyHistSeqr::gmean     1.003307                       (Unspecified)
board.cache_hierarchy.ruby_system.m_hitLatencyHistSeqr::stdev     0.130806                       (Unspecified)
board.cache_hierarchy.ruby_system.m_hitLatencyHistSeqr |  3065850523    100.00%    100.00% |          82      0.00%    100.00% |          66      0.00%    100.00% |          31      0.00%    100.00% |           0      0.00%    100.00% |           0      0.00%    100.00% |           1      0.00%    100.00% |           0      0.00%    100.00% |           0      0.00%    100.00% |           0      0.00%    100.00% (Unspecified)
board.cache_hierarchy.ruby_system.m_hitLatencyHistSeqr::total   3065850703                       (Unspecified)
board.cache_hierarchy.ruby_system.m_missLatencyHistSeqr::bucket_size          512                       (Unspecified)
board.cache_hierarchy.ruby_system.m_missLatencyHistSeqr::max_bucket         5119                       (Unspecified)
board.cache_hierarchy.ruby_system.m_missLatencyHistSeqr::samples     86607652                       (Unspecified)
board.cache_hierarchy.ruby_system.m_missLatencyHistSeqr::mean    85.029301                       (Unspecified)
board.cache_hierarchy.ruby_system.m_missLatencyHistSeqr::gmean    33.073321                       (Unspecified)
board.cache_hierarchy.ruby_system.m_missLatencyHistSeqr::stdev   122.929994                       (Unspecified)
board.cache_hierarchy.ruby_system.m_missLatencyHistSeqr |    85486708     98.71%     98.71% |     1036270      1.20%     99.90% |       79172      0.09%     99.99% |        5183      0.01%    100.00% |         261      0.00%    100.00% |          56      0.00%    100.00% |           0      0.00%    100.00% |           2      0.00%    100.00% |           0      0.00%    100.00% |           0      0.00%    100.00% (Unspecified)
board.cache_hierarchy.ruby_system.m_missLatencyHistSeqr::total     86607652                       (Unspecified)
board.cache_hierarchy.ruby_system.Directory_Controller.GETX     11756597      0.00%      0.00% (Unspecified)
board.cache_hierarchy.ruby_system.Directory_Controller.GETS     19676966      0.00%      0.00% (Unspecified)
board.cache_hierarchy.ruby_system.Directory_Controller.PUTX     11733435      0.00%      0.00% (Unspecified)
board.cache_hierarchy.ruby_system.Directory_Controller.PUTO_SHARERS         5751      0.00%      0.00% (Unspecified)
board.cache_hierarchy.ruby_system.Directory_Controller.Unblock      5942589      0.00%      0.00% (Unspecified)
board.cache_hierarchy.ruby_system.Directory_Controller.Last_Unblock     13748278      0.00%      0.00% (Unspecified)
board.cache_hierarchy.ruby_system.Directory_Controller.Exclusive_Unblock     13062427      0.00%      0.00% (Unspecified)
board.cache_hierarchy.ruby_system.Directory_Controller.Dirty_Writeback     11739186      0.00%      0.00% (Unspecified)
board.cache_hierarchy.ruby_system.Directory_Controller.Memory_Data_DMA        65337      0.00%      0.00% (Unspecified)
board.cache_hierarchy.ruby_system.Directory_Controller.Memory_Data_Cache     31433134      0.00%      0.00% (Unspecified)
board.cache_hierarchy.ruby_system.Directory_Controller.Memory_Ack     13045202      0.00%      0.00% (Unspecified)
board.cache_hierarchy.ruby_system.Directory_Controller.DMA_READ        75395      0.00%      0.00% (Unspecified)
board.cache_hierarchy.ruby_system.Directory_Controller.DMA_WRITE_LINE      1306019      0.00%      0.00% (Unspecified)
board.cache_hierarchy.ruby_system.Directory_Controller.DMA_ACK        10058      0.00%      0.00% (Unspecified)
board.cache_hierarchy.ruby_system.Directory_Controller.Data        10775      0.00%      0.00% (Unspecified)
board.cache_hierarchy.ruby_system.Directory_Controller.All_Acks      1306016      0.00%      0.00% (Unspecified)
board.cache_hierarchy.ruby_system.Directory_Controller.I.GETX      6861312      0.00%      0.00% (Unspecified)
board.cache_hierarchy.ruby_system.Directory_Controller.I.GETS      5942589      0.00%      0.00% (Unspecified)
board.cache_hierarchy.ruby_system.Directory_Controller.I.DMA_READ        51193      0.00%      0.00% (Unspecified)
board.cache_hierarchy.ruby_system.Directory_Controller.I.DMA_WRITE_LINE      1164953      0.00%      0.00% (Unspecified)
board.cache_hierarchy.ruby_system.Directory_Controller.S.GETX      4895099      0.00%      0.00% (Unspecified)
board.cache_hierarchy.ruby_system.Directory_Controller.S.GETS     13734134      0.00%      0.00% (Unspecified)
board.cache_hierarchy.ruby_system.Directory_Controller.S.DMA_READ        14144      0.00%      0.00% (Unspecified)
board.cache_hierarchy.ruby_system.Directory_Controller.S.DMA_WRITE_LINE       130288      0.00%      0.00% (Unspecified)
board.cache_hierarchy.ruby_system.Directory_Controller.M.PUTX     11733435      0.00%      0.00% (Unspecified)
board.cache_hierarchy.ruby_system.Directory_Controller.M.PUTO_SHARERS         5751      0.00%      0.00% (Unspecified)
board.cache_hierarchy.ruby_system.Directory_Controller.M.DMA_READ        10058      0.00%      0.00% (Unspecified)
board.cache_hierarchy.ruby_system.Directory_Controller.M.DMA_WRITE_LINE        10775      0.00%      0.00% (Unspecified)
board.cache_hierarchy.ruby_system.Directory_Controller.IS_M.Memory_Data_Cache      5942589      0.00%      0.00% (Unspecified)
board.cache_hierarchy.ruby_system.Directory_Controller.IS.Unblock      5942589      0.00%      0.00% (Unspecified)
board.cache_hierarchy.ruby_system.Directory_Controller.SS.Last_Unblock     13748278      0.00%      0.00% (Unspecified)
board.cache_hierarchy.ruby_system.Directory_Controller.SS.Memory_Data_DMA        14144      0.00%      0.00% (Unspecified)
board.cache_hierarchy.ruby_system.Directory_Controller.SS.Memory_Data_Cache     13734134      0.00%      0.00% (Unspecified)
board.cache_hierarchy.ruby_system.Directory_Controller.MM_M.Memory_Data_Cache     11756411      0.00%      0.00% (Unspecified)
board.cache_hierarchy.ruby_system.Directory_Controller.MM.Exclusive_Unblock     11756411      0.00%      0.00% (Unspecified)
board.cache_hierarchy.ruby_system.Directory_Controller.MI.Dirty_Writeback     11733435      0.00%      0.00% (Unspecified)
board.cache_hierarchy.ruby_system.Directory_Controller.MIS.Dirty_Writeback         5751      0.00%      0.00% (Unspecified)
board.cache_hierarchy.ruby_system.Directory_Controller.WBI.GETX          186      0.00%      0.00% (Unspecified)
board.cache_hierarchy.ruby_system.Directory_Controller.WBI.GETS          243      0.00%      0.00% (Unspecified)
board.cache_hierarchy.ruby_system.Directory_Controller.WBI.Memory_Ack     11733435      0.00%      0.00% (Unspecified)
board.cache_hierarchy.ruby_system.Directory_Controller.WBI.DMA_WRITE_LINE            3      0.00%      0.00% (Unspecified)
board.cache_hierarchy.ruby_system.Directory_Controller.WBS.Memory_Ack         5751      0.00%      0.00% (Unspecified)
board.cache_hierarchy.ruby_system.Directory_Controller.XI_M.Memory_Data_DMA        51193      0.00%      0.00% (Unspecified)
board.cache_hierarchy.ruby_system.Directory_Controller.XI_U.Exclusive_Unblock      1306016      0.00%      0.00% (Unspecified)
board.cache_hierarchy.ruby_system.Directory_Controller.XI_U.Memory_Ack      1306016      0.00%      0.00% (Unspecified)
board.cache_hierarchy.ruby_system.Directory_Controller.XI_U.All_Acks      1306016      0.00%      0.00% (Unspecified)
board.cache_hierarchy.ruby_system.Directory_Controller.OI_D.Data        10775      0.00%      0.00% (Unspecified)
board.cache_hierarchy.ruby_system.Directory_Controller.MD.DMA_ACK        10058      0.00%      0.00% (Unspecified)
board.cache_hierarchy.ruby_system.DMA_Controller.ReadRequest |     2187364    100.00%    100.00% |           0      0.00%    100.00% (Unspecified)
board.cache_hierarchy.ruby_system.DMA_Controller.ReadRequest::total      2187364                       (Unspecified)
board.cache_hierarchy.ruby_system.DMA_Controller.WriteRequest |    41365066    100.00%    100.00% |           0      0.00%    100.00% (Unspecified)
board.cache_hierarchy.ruby_system.DMA_Controller.WriteRequest::total     41365066                       (Unspecified)
board.cache_hierarchy.ruby_system.DMA_Controller.Data |       75395    100.00%    100.00% |           0      0.00%    100.00% (Unspecified)
board.cache_hierarchy.ruby_system.DMA_Controller.Data::total        75395                       (Unspecified)
board.cache_hierarchy.ruby_system.DMA_Controller.DMA_Ack |     1306016    100.00%    100.00% |           0      0.00%    100.00% (Unspecified)
board.cache_hierarchy.ruby_system.DMA_Controller.DMA_Ack::total      1306016                       (Unspecified)
board.cache_hierarchy.ruby_system.DMA_Controller.Inv_Ack |      130288    100.00%    100.00% |           0      0.00%    100.00% (Unspecified)
board.cache_hierarchy.ruby_system.DMA_Controller.Inv_Ack::total       130288                       (Unspecified)
board.cache_hierarchy.ruby_system.DMA_Controller.All_Acks |     1306016    100.00%    100.00% |           0      0.00%    100.00% (Unspecified)
board.cache_hierarchy.ruby_system.DMA_Controller.All_Acks::total      1306016                       (Unspecified)
board.cache_hierarchy.ruby_system.DMA_Controller.READY.ReadRequest |       75395    100.00%    100.00% |           0      0.00%    100.00% (Unspecified)
board.cache_hierarchy.ruby_system.DMA_Controller.READY.ReadRequest::total        75395                       (Unspecified)
board.cache_hierarchy.ruby_system.DMA_Controller.READY.WriteRequest |     1306016    100.00%    100.00% |           0      0.00%    100.00% (Unspecified)
board.cache_hierarchy.ruby_system.DMA_Controller.READY.WriteRequest::total      1306016                       (Unspecified)
board.cache_hierarchy.ruby_system.DMA_Controller.BUSY_RD.ReadRequest |     2111969    100.00%    100.00% |           0      0.00%    100.00% (Unspecified)
board.cache_hierarchy.ruby_system.DMA_Controller.BUSY_RD.ReadRequest::total      2111969                       (Unspecified)
board.cache_hierarchy.ruby_system.DMA_Controller.BUSY_RD.Data |       75395    100.00%    100.00% |           0      0.00%    100.00% (Unspecified)
board.cache_hierarchy.ruby_system.DMA_Controller.BUSY_RD.Data::total        75395                       (Unspecified)
board.cache_hierarchy.ruby_system.DMA_Controller.BUSY_WR.WriteRequest |    40059050    100.00%    100.00% |           0      0.00%    100.00% (Unspecified)
board.cache_hierarchy.ruby_system.DMA_Controller.BUSY_WR.WriteRequest::total     40059050                       (Unspecified)
board.cache_hierarchy.ruby_system.DMA_Controller.BUSY_WR.DMA_Ack |     1306016    100.00%    100.00% |           0      0.00%    100.00% (Unspecified)
board.cache_hierarchy.ruby_system.DMA_Controller.BUSY_WR.DMA_Ack::total      1306016                       (Unspecified)
board.cache_hierarchy.ruby_system.DMA_Controller.BUSY_WR.Inv_Ack |      130288    100.00%    100.00% |           0      0.00%    100.00% (Unspecified)
board.cache_hierarchy.ruby_system.DMA_Controller.BUSY_WR.Inv_Ack::total       130288                       (Unspecified)
board.cache_hierarchy.ruby_system.DMA_Controller.BUSY_WR.All_Acks |     1306016    100.00%    100.00% |           0      0.00%    100.00% (Unspecified)
board.cache_hierarchy.ruby_system.DMA_Controller.BUSY_WR.All_Acks::total      1306016                       (Unspecified)
board.cache_hierarchy.ruby_system.L1Cache_Controller.Load |   492332943     33.57%     33.57% |    64690549      4.41%     37.98% |    57652167      3.93%     41.91% |    61391898      4.19%     46.10% |   163602212     11.16%     57.26% |   453426787     30.92%     88.18% |    41135005      2.80%     90.98% |   132263487      9.02%    100.00% (Unspecified)
board.cache_hierarchy.ruby_system.L1Cache_Controller.Load::total   1466495048                       (Unspecified)
board.cache_hierarchy.ruby_system.L1Cache_Controller.Ifetch |   247151822     25.79%     25.79% |    56242349      5.87%     31.65% |    47778901      4.99%     36.64% |    52526946      5.48%     42.12% |   128495696     13.41%     55.53% |   296403035     30.93%     86.45% |    36821147      3.84%     90.29% |    93033479      9.71%    100.00% (Unspecified)
board.cache_hierarchy.ruby_system.L1Cache_Controller.Ifetch::total    958453375                       (Unspecified)
board.cache_hierarchy.ruby_system.L1Cache_Controller.Store |   137796007     18.94%     18.94% |    53713426      7.38%     26.32% |    41735567      5.74%     32.06% |    52299052      7.19%     39.25% |    76139563     10.47%     49.71% |   246082181     33.82%     83.54% |    30286960      4.16%     87.70% |    89499950     12.30%    100.00% (Unspecified)
board.cache_hierarchy.ruby_system.L1Cache_Controller.Store::total    727552706                       (Unspecified)
board.cache_hierarchy.ruby_system.L1Cache_Controller.L1_Replacement |     9448994     11.56%     11.56% |     4471044      5.47%     17.03% |     3119966      3.82%     20.84% |     4118320      5.04%     25.88% |    10413728     12.74%     38.61% |    38065798     46.56%     85.17% |     2877885      3.52%     88.69% |     9246342     11.31%    100.00% (Unspecified)
board.cache_hierarchy.ruby_system.L1Cache_Controller.L1_Replacement::total     81762077                       (Unspecified)
board.cache_hierarchy.ruby_system.L1Cache_Controller.Own_GETX |        2900     19.08%     19.08% |        2396     15.76%     34.84% |        2186     14.38%     49.22% |        1334      8.78%     58.00% |        2473     16.27%     74.27% |        1534     10.09%     84.36% |        1412      9.29%     93.65% |         965      6.35%    100.00% (Unspecified)
board.cache_hierarchy.ruby_system.L1Cache_Controller.Own_GETX::total        15200                       (Unspecified)
board.cache_hierarchy.ruby_system.L1Cache_Controller.Fwd_GETX |      125015     17.47%     17.47% |      132781     18.56%     36.03% |      118207     16.52%     52.55% |       52571      7.35%     59.90% |      128988     18.03%     77.93% |       65384      9.14%     87.07% |       42579      5.95%     93.02% |       49935      6.98%    100.00% (Unspecified)
board.cache_hierarchy.ruby_system.L1Cache_Controller.Fwd_GETX::total       715460                       (Unspecified)
board.cache_hierarchy.ruby_system.L1Cache_Controller.Fwd_GETS |      975281     24.71%     24.71% |      674341     17.09%     41.80% |      849451     21.52%     63.32% |      327792      8.31%     71.63% |      382425      9.69%     81.32% |      284834      7.22%     88.54% |      239222      6.06%     94.60% |      213243      5.40%    100.00% (Unspecified)
board.cache_hierarchy.ruby_system.L1Cache_Controller.Fwd_GETS::total      3946589                       (Unspecified)
board.cache_hierarchy.ruby_system.L1Cache_Controller.Fwd_DMA |        1483     17.66%     17.66% |         623      7.42%     25.08% |        1814     21.61%     46.69% |         533      6.35%     53.04% |         477      5.68%     58.72% |        1592     18.96%     77.68% |         518      6.17%     83.85% |        1356     16.15%    100.00% (Unspecified)
board.cache_hierarchy.ruby_system.L1Cache_Controller.Fwd_DMA::total         8396                       (Unspecified)
board.cache_hierarchy.ruby_system.L1Cache_Controller.Inv |       27021      4.97%      4.97% |       85972     15.81%     20.78% |       29106      5.35%     26.14% |       80634     14.83%     40.97% |       81029     14.90%     55.87% |       76097     14.00%     69.87% |       81425     14.98%     84.84% |       82404     15.16%    100.00% (Unspecified)
board.cache_hierarchy.ruby_system.L1Cache_Controller.Inv::total       543688                       (Unspecified)
board.cache_hierarchy.ruby_system.L1Cache_Controller.Ack |      512488     43.15%     43.15% |      161212     13.57%     56.73% |      101557      8.55%     65.28% |       69854      5.88%     71.16% |      109193      9.19%     80.36% |       94115      7.92%     88.28% |       67562      5.69%     93.97% |       71618      6.03%    100.00% (Unspecified)
board.cache_hierarchy.ruby_system.L1Cache_Controller.Ack::total      1187599                       (Unspecified)
board.cache_hierarchy.ruby_system.L1Cache_Controller.Data |     6636862     10.05%     10.05% |     3658896      5.54%     15.59% |     2481505      3.76%     19.35% |     3331341      5.04%     24.39% |     7712749     11.68%     36.07% |    32915151     49.84%     85.92% |     2370276      3.59%     89.51% |     6930102     10.49%    100.00% (Unspecified)
board.cache_hierarchy.ruby_system.L1Cache_Controller.Data::total     66036882                       (Unspecified)
board.cache_hierarchy.ruby_system.L1Cache_Controller.Exclusive_Data |     4185909     20.36%     20.36% |     1247307      6.07%     26.43% |      917623      4.46%     30.90% |     1092713      5.32%     36.21% |     3486075     16.96%     53.17% |     5945989     28.93%     82.10% |      776326      3.78%     85.87% |     2903628     14.13%    100.00% (Unspecified)
board.cache_hierarchy.ruby_system.L1Cache_Controller.Exclusive_Data::total     20555570                       (Unspecified)
board.cache_hierarchy.ruby_system.L1Cache_Controller.Writeback_Ack |     3621394      8.46%      8.46% |     2292803      5.36%     13.82% |     1566608      3.66%     17.48% |     2034150      4.75%     22.24% |     2573834      6.01%     28.25% |    25368926     59.29%     87.54% |     1325056      3.10%     90.63% |     4007492      9.37%    100.00% (Unspecified)
board.cache_hierarchy.ruby_system.L1Cache_Controller.Writeback_Ack::total     42790263                       (Unspecified)
board.cache_hierarchy.ruby_system.L1Cache_Controller.Writeback_Ack_Data |     5706804     14.85%     14.85% |     2084849      5.43%     20.28% |     1494104      3.89%     24.17% |     2039838      5.31%     29.48% |     7765072     20.21%     49.69% |    12636475     32.89%     82.59% |     1506734      3.92%     86.51% |     5183461     13.49%    100.00% (Unspecified)
board.cache_hierarchy.ruby_system.L1Cache_Controller.Writeback_Ack_Data::total     38417337                       (Unspecified)
board.cache_hierarchy.ruby_system.L1Cache_Controller.Writeback_Nack |           3     23.08%     23.08% |           0      0.00%     23.08% |           1      7.69%     30.77% |           1      7.69%     38.46% |           1      7.69%     46.15% |           2     15.38%     61.54% |           3     23.08%     84.62% |           2     15.38%    100.00% (Unspecified)
board.cache_hierarchy.ruby_system.L1Cache_Controller.Writeback_Nack::total           13                       (Unspecified)
board.cache_hierarchy.ruby_system.L1Cache_Controller.All_acks |     3512313     23.55%     23.55% |      864422      5.80%     29.35% |      629680      4.22%     33.57% |      832932      5.59%     39.16% |     2793795     18.74%     57.90% |     3763007     25.24%     83.13% |      591996      3.97%     87.10% |     1923068     12.90%    100.00% (Unspecified)
board.cache_hierarchy.ruby_system.L1Cache_Controller.All_acks::total     14911213                       (Unspecified)
board.cache_hierarchy.ruby_system.L1Cache_Controller.Use_Timeout |     4188809     20.36%     20.36% |     1249703      6.08%     26.44% |      919809      4.47%     30.91% |     1094047      5.32%     36.23% |     3488548     16.96%     53.19% |     5947523     28.91%     82.10% |      777738      3.78%     85.88% |     2904593     14.12%    100.00% (Unspecified)
board.cache_hierarchy.ruby_system.L1Cache_Controller.Use_Timeout::total     20570770                       (Unspecified)
board.cache_hierarchy.ruby_system.L1Cache_Controller.I.Load |     3451951     11.00%     11.00% |     1653575      5.27%     16.27% |     1153959      3.68%     19.95% |     1420140      4.53%     24.48% |     6180467     19.70%     44.18% |    12480259     39.78%     83.95% |     1027833      3.28%     87.23% |     4007002     12.77%    100.00% (Unspecified)
board.cache_hierarchy.ruby_system.L1Cache_Controller.I.Load::total     31375186                       (Unspecified)
board.cache_hierarchy.ruby_system.L1Cache_Controller.I.Ifetch |     3861407      9.58%      9.58% |     2390602      5.93%     15.51% |     1617675      4.01%     19.52% |     2172316      5.39%     24.90% |     2227035      5.52%     30.43% |    22619408     56.10%     86.53% |     1528185      3.79%     90.32% |     3904626      9.68%    100.00% (Unspecified)
board.cache_hierarchy.ruby_system.L1Cache_Controller.I.Ifetch::total     40321254                       (Unspecified)
board.cache_hierarchy.ruby_system.L1Cache_Controller.I.Store |     2369023     20.67%     20.67% |      674733      5.89%     26.56% |      500600      4.37%     30.92% |      662505      5.78%     36.71% |     2230966     19.47%     56.17% |     3112539     27.16%     83.33% |      443121      3.87%     87.19% |     1467737     12.81%    100.00% (Unspecified)
board.cache_hierarchy.ruby_system.L1Cache_Controller.I.Store::total     11461224                       (Unspecified)
board.cache_hierarchy.ruby_system.L1Cache_Controller.I.L1_Replacement |      120544     21.80%     21.80% |       93360     16.88%     38.68% |       59243     10.71%     49.39% |       44320      8.01%     57.41% |       74724     13.51%     70.92% |       59833     10.82%     81.74% |       46082      8.33%     90.07% |       54924      9.93%    100.00% (Unspecified)
board.cache_hierarchy.ruby_system.L1Cache_Controller.I.L1_Replacement::total       553030                       (Unspecified)
board.cache_hierarchy.ruby_system.L1Cache_Controller.S.Load |    90222874     20.13%     20.13% |    23186161      5.17%     25.30% |    19099304      4.26%     29.56% |    19826483      4.42%     33.98% |    78572054     17.53%     51.51% |   159565660     35.60%     87.11% |    15021333      3.35%     90.46% |    42758703      9.54%    100.00% (Unspecified)
board.cache_hierarchy.ruby_system.L1Cache_Controller.S.Load::total    448252572                       (Unspecified)
board.cache_hierarchy.ruby_system.L1Cache_Controller.S.Ifetch |   199703564     22.84%     22.84% |    53851206      6.16%     28.99% |    46160752      5.28%     34.27% |    50354312      5.76%     40.03% |   126265205     14.44%     54.47% |   273778564     31.31%     85.77% |    35292757      4.04%     89.81% |    89121497     10.19%    100.00% (Unspecified)
board.cache_hierarchy.ruby_system.L1Cache_Controller.S.Ifetch::total    874527857                       (Unspecified)
board.cache_hierarchy.ruby_system.L1Cache_Controller.S.Store |     1140372     33.20%     33.20% |      187259      5.45%     38.66% |      126853      3.69%     42.35% |      169062      4.92%     47.27% |      560311     16.31%     63.59% |      648905     18.89%     82.48% |      147441      4.29%     86.77% |      454340     13.23%    100.00% (Unspecified)
board.cache_hierarchy.ruby_system.L1Cache_Controller.S.Store::total      3434543                       (Unspecified)
board.cache_hierarchy.ruby_system.L1Cache_Controller.S.L1_Replacement |     5468457      8.81%      8.81% |     3384758      5.45%     14.27% |     2324974      3.75%     18.01% |     3080846      4.96%     22.98% |     7070405     11.39%     34.37% |    32189186     51.87%     86.25% |     2140683      3.45%     89.70% |     6392509     10.30%    100.00% (Unspecified)
board.cache_hierarchy.ruby_system.L1Cache_Controller.S.L1_Replacement::total     62051818                       (Unspecified)
board.cache_hierarchy.ruby_system.L1Cache_Controller.S.Fwd_GETS |      669826     29.71%     29.71% |      439875     19.51%     49.22% |      378565     16.79%     66.01% |      211636      9.39%     75.39% |      164269      7.29%     82.68% |      153137      6.79%     89.47% |      139615      6.19%     95.66% |       97762      4.34%    100.00% (Unspecified)
board.cache_hierarchy.ruby_system.L1Cache_Controller.S.Fwd_GETS::total      2254685                       (Unspecified)
board.cache_hierarchy.ruby_system.L1Cache_Controller.S.Inv |       26610      4.94%      4.94% |       85331     15.83%     20.77% |       28148      5.22%     25.99% |       79893     14.82%     40.82% |       80529     14.94%     55.76% |       75533     14.01%     69.77% |       80918     15.01%     84.79% |       81991     15.21%    100.00% (Unspecified)
board.cache_hierarchy.ruby_system.L1Cache_Controller.S.Inv::total       538953                       (Unspecified)
board.cache_hierarchy.ruby_system.L1Cache_Controller.O.Load |       93757      3.25%      3.25% |      793844     27.52%     30.78% |      417003     14.46%     45.23% |      327232     11.35%     56.58% |      359112     12.45%     69.03% |      202144      7.01%     76.04% |      474021     16.44%     92.47% |      217038      7.53%    100.00% (Unspecified)
board.cache_hierarchy.ruby_system.L1Cache_Controller.O.Load::total      2884151                       (Unspecified)
board.cache_hierarchy.ruby_system.L1Cache_Controller.O.Ifetch |      421406    100.00%    100.00% |           0      0.00%    100.00% |           6      0.00%    100.00% |           0      0.00%    100.00% |           0      0.00%    100.00% |           0      0.00%    100.00% |           0      0.00%    100.00% |           0      0.00%    100.00% (Unspecified)
board.cache_hierarchy.ruby_system.L1Cache_Controller.O.Ifetch::total       421412                       (Unspecified)
board.cache_hierarchy.ruby_system.L1Cache_Controller.O.Store |        2918     18.89%     18.89% |        2430     15.73%     34.62% |        2227     14.42%     49.04% |        1365      8.84%     57.88% |        2518     16.30%     74.18% |        1563     10.12%     84.30% |        1434      9.28%     93.58% |         991      6.42%    100.00% (Unspecified)
board.cache_hierarchy.ruby_system.L1Cache_Controller.O.Store::total        15446                       (Unspecified)
board.cache_hierarchy.ruby_system.L1Cache_Controller.O.L1_Replacement |        4080     15.92%     15.92% |        5626     21.95%     37.87% |        3673     14.33%     52.20% |        2515      9.81%     62.02% |        2658     10.37%     72.39% |        2546      9.93%     82.32% |        2359      9.20%     91.53% |        2172      8.47%    100.00% (Unspecified)
board.cache_hierarchy.ruby_system.L1Cache_Controller.O.L1_Replacement::total        25629                       (Unspecified)
board.cache_hierarchy.ruby_system.L1Cache_Controller.O.Fwd_GETX |       24811     11.85%     11.85% |       39130     18.70%     30.55% |       68693     32.82%     63.37% |       12417      5.93%     69.30% |       28325     13.53%     82.84% |       13017      6.22%     89.06% |       11139      5.32%     94.38% |       11768      5.62%    100.00% (Unspecified)
board.cache_hierarchy.ruby_system.L1Cache_Controller.O.Fwd_GETX::total       209300                       (Unspecified)
board.cache_hierarchy.ruby_system.L1Cache_Controller.O.Fwd_GETS |       27611      5.60%      5.60% |       35877      7.28%     12.88% |      299740     60.82%     73.70% |       26462      5.37%     79.07% |       27597      5.60%     84.67% |       26487      5.37%     90.05% |       23828      4.83%     94.88% |       25225      5.12%    100.00% (Unspecified)
board.cache_hierarchy.ruby_system.L1Cache_Controller.O.Fwd_GETS::total       492827                       (Unspecified)
board.cache_hierarchy.ruby_system.L1Cache_Controller.O.Fwd_DMA |           0      0.00%      0.00% |           1    100.00%    100.00% |           0      0.00%    100.00% |           0      0.00%    100.00% |           0      0.00%    100.00% |           0      0.00%    100.00% |           0      0.00%    100.00% |           0      0.00%    100.00% (Unspecified)
board.cache_hierarchy.ruby_system.L1Cache_Controller.O.Fwd_DMA::total            1                       (Unspecified)
board.cache_hierarchy.ruby_system.L1Cache_Controller.M.Load |     4346515      4.49%      4.49% |     4564939      4.71%      9.20% |     5135375      5.30%     14.50% |     6533132      6.75%     21.25% |    19799567     20.44%     41.69% |    37883001     39.11%     80.81% |     2192511      2.26%     83.07% |    16397631     16.93%    100.00% (Unspecified)
board.cache_hierarchy.ruby_system.L1Cache_Controller.M.Load::total     96852671                       (Unspecified)
board.cache_hierarchy.ruby_system.L1Cache_Controller.M.Ifetch |    43164543    100.00%    100.00% |         210      0.00%    100.00% |          35      0.00%    100.00% |           8      0.00%    100.00% |           8      0.00%    100.00% |           8      0.00%    100.00% |           9      0.00%    100.00% |          17      0.00%    100.00% (Unspecified)
board.cache_hierarchy.ruby_system.L1Cache_Controller.M.Ifetch::total     43164838                       (Unspecified)
board.cache_hierarchy.ruby_system.L1Cache_Controller.M.Store |      244063     14.37%     14.37% |      118489      6.98%     21.35% |       82785      4.88%     26.23% |       74292      4.38%     30.60% |      228619     13.46%     44.07% |      600762     35.38%     79.45% |       60792      3.58%     83.03% |      288102     16.97%    100.00% (Unspecified)
board.cache_hierarchy.ruby_system.L1Cache_Controller.M.Store::total      1697904                       (Unspecified)
board.cache_hierarchy.ruby_system.L1Cache_Controller.M.L1_Replacement |      198935      8.33%      8.33% |      129630      5.43%     13.76% |       80485      3.37%     17.14% |      116841      4.89%     22.03% |      268849     11.26%     33.29% |     1097401     45.97%     79.27% |       69870      2.93%     82.19% |      425041     17.81%    100.00% (Unspecified)
board.cache_hierarchy.ruby_system.L1Cache_Controller.M.L1_Replacement::total      2387052                       (Unspecified)
board.cache_hierarchy.ruby_system.L1Cache_Controller.M.Fwd_GETX |       12884     16.68%     16.68% |       17968     23.27%     39.95% |        3897      5.05%     45.00% |        7795     10.09%     55.09% |       15014     19.44%     74.53% |        8109     10.50%     85.03% |        7864     10.18%     95.22% |        3695      4.78%    100.00% (Unspecified)
board.cache_hierarchy.ruby_system.L1Cache_Controller.M.Fwd_GETX::total        77226                       (Unspecified)
board.cache_hierarchy.ruby_system.L1Cache_Controller.M.Fwd_GETS |       31810     12.70%     12.70% |       47194     18.84%     31.54% |       74632     29.80%     61.34% |       16303      6.51%     67.85% |       33505     13.38%     81.23% |       17134      6.84%     88.07% |       14941      5.97%     94.04% |       14931      5.96%    100.00% (Unspecified)
board.cache_hierarchy.ruby_system.L1Cache_Controller.M.Fwd_GETS::total       250450                       (Unspecified)
board.cache_hierarchy.ruby_system.L1Cache_Controller.M.Fwd_DMA |           1      0.44%      0.44% |           0      0.00%      0.44% |         227     99.56%    100.00% |           0      0.00%    100.00% |           0      0.00%    100.00% |           0      0.00%    100.00% |           0      0.00%    100.00% |           0      0.00%    100.00% (Unspecified)
board.cache_hierarchy.ruby_system.L1Cache_Controller.M.Fwd_DMA::total          228                       (Unspecified)
board.cache_hierarchy.ruby_system.L1Cache_Controller.M_W.Load |      318871      9.67%      9.67% |      265484      8.05%     17.72% |      216233      6.56%     24.27% |      180274      5.47%     29.74% |      439177     13.31%     43.05% |     1156046     35.05%     78.10% |      135413      4.11%     82.20% |      586990     17.80%    100.00% (Unspecified)
board.cache_hierarchy.ruby_system.L1Cache_Controller.M_W.Load::total      3298488                       (Unspecified)
board.cache_hierarchy.ruby_system.L1Cache_Controller.M_W.Ifetch |         328     86.77%     86.77% |           8      2.12%     88.89% |           9      2.38%     91.27% |           7      1.85%     93.12% |           7      1.85%     94.97% |           7      1.85%     96.83% |           6      1.59%     98.41% |           6      1.59%    100.00% (Unspecified)
board.cache_hierarchy.ruby_system.L1Cache_Controller.M_W.Ifetch::total          378                       (Unspecified)
board.cache_hierarchy.ruby_system.L1Cache_Controller.M_W.Store |      188787     15.14%     15.14% |       71976      5.77%     20.92% |       48311      3.88%     24.79% |       45860      3.68%     28.47% |      148736     11.93%     40.40% |      461079     36.98%     77.38% |       32260      2.59%     79.97% |      249690     20.03%    100.00% (Unspecified)
board.cache_hierarchy.ruby_system.L1Cache_Controller.M_W.Store::total      1246699                       (Unspecified)
board.cache_hierarchy.ruby_system.L1Cache_Controller.M_W.L1_Replacement |          90     84.11%     84.11% |           0      0.00%     84.11% |           0      0.00%     84.11% |           0      0.00%     84.11% |           0      0.00%     84.11% |          11     10.28%     94.39% |           0      0.00%     94.39% |           6      5.61%    100.00% (Unspecified)
board.cache_hierarchy.ruby_system.L1Cache_Controller.M_W.L1_Replacement::total          107                       (Unspecified)
board.cache_hierarchy.ruby_system.L1Cache_Controller.M_W.Fwd_GETX |        1203      4.35%      4.35% |        2006      7.25%     11.61% |        1754      6.34%     17.95% |        1878      6.79%     24.74% |       16727     60.49%     85.23% |        1530      5.53%     90.77% |        1105      4.00%     94.76% |        1448      5.24%    100.00% (Unspecified)
board.cache_hierarchy.ruby_system.L1Cache_Controller.M_W.Fwd_GETX::total        27651                       (Unspecified)
board.cache_hierarchy.ruby_system.L1Cache_Controller.M_W.Fwd_GETS |       24343     45.27%     45.27% |        4822      8.97%     54.24% |        5279      9.82%     64.06% |        3290      6.12%     70.18% |        8100     15.06%     85.24% |        3344      6.22%     91.46% |        2197      4.09%     95.55% |        2394      4.45%    100.00% (Unspecified)
board.cache_hierarchy.ruby_system.L1Cache_Controller.M_W.Fwd_GETS::total        53769                       (Unspecified)
board.cache_hierarchy.ruby_system.L1Cache_Controller.M_W.Use_Timeout |      487709     11.05%     11.05% |      313305      7.10%     18.15% |      241818      5.48%     23.63% |      215255      4.88%     28.51% |      546017     12.37%     40.88% |     1723437     39.05%     79.94% |      153482      3.48%     83.42% |      731835     16.58%    100.00% (Unspecified)
board.cache_hierarchy.ruby_system.L1Cache_Controller.M_W.Use_Timeout::total      4412858                       (Unspecified)
board.cache_hierarchy.ruby_system.L1Cache_Controller.MM.Load |   393516839     44.67%     44.67% |    34021372      3.86%     48.53% |    31506050      3.58%     52.11% |    32975304      3.74%     55.85% |    57671463      6.55%     62.40% |   241234692     27.38%     89.78% |    22181283      2.52%     92.30% |    67813163      7.70%    100.00% (Unspecified)
board.cache_hierarchy.ruby_system.L1Cache_Controller.MM.Load::total    880920166                       (Unspecified)
board.cache_hierarchy.ruby_system.L1Cache_Controller.MM.Store |   108590827     17.31%     17.31% |    47495478      7.57%     24.89% |    37526450      5.98%     30.87% |    44840586      7.15%     38.02% |    61613227      9.82%     47.84% |   223342654     35.61%     83.46% |    26265176      4.19%     87.64% |    77496339     12.36%    100.00% (Unspecified)
board.cache_hierarchy.ruby_system.L1Cache_Controller.MM.Store::total    627170737                       (Unspecified)
board.cache_hierarchy.ruby_system.L1Cache_Controller.MM.L1_Replacement |     3656729     21.84%     21.84% |      857638      5.12%     26.96% |      651581      3.89%     30.85% |      873787      5.22%     36.07% |     2996995     17.90%     53.97% |     4716270     28.17%     82.14% |      618881      3.70%     85.84% |     2371234     14.16%    100.00% (Unspecified)
board.cache_hierarchy.ruby_system.L1Cache_Controller.MM.L1_Replacement::total     16743115                       (Unspecified)
board.cache_hierarchy.ruby_system.L1Cache_Controller.MM.Fwd_GETX |       79901     23.16%     23.16% |       66257     19.21%     42.37% |       33718      9.77%     52.14% |       23211      6.73%     58.87% |       61376     17.79%     76.66% |       35819     10.38%     87.04% |       16956      4.92%     91.96% |       27744      8.04%    100.00% (Unspecified)
board.cache_hierarchy.ruby_system.L1Cache_Controller.MM.Fwd_GETX::total       344982                       (Unspecified)
board.cache_hierarchy.ruby_system.L1Cache_Controller.MM.Fwd_GETS |      208000     27.21%     27.21% |      130782     17.11%     44.32% |       75257      9.84%     54.16% |       55828      7.30%     61.46% |      112327     14.69%     76.16% |       72350      9.46%     85.62% |       48754      6.38%     92.00% |       61163      8.00%    100.00% (Unspecified)
board.cache_hierarchy.ruby_system.L1Cache_Controller.MM.Fwd_GETS::total       764461                       (Unspecified)
board.cache_hierarchy.ruby_system.L1Cache_Controller.MM.Fwd_DMA |        1482     18.15%     18.15% |         622      7.62%     25.76% |        1587     19.43%     45.19% |         533      6.53%     51.72% |         477      5.84%     57.56% |        1592     19.49%     77.05% |         518      6.34%     83.40% |        1356     16.60%    100.00% (Unspecified)
board.cache_hierarchy.ruby_system.L1Cache_Controller.MM.Fwd_DMA::total         8167                       (Unspecified)
board.cache_hierarchy.ruby_system.L1Cache_Controller.MM_W.Load |      380927     13.19%     13.19% |      204587      7.09%     20.28% |      123773      4.29%     24.57% |      128830      4.46%     29.03% |      575997     19.95%     48.98% |      897004     31.07%     80.05% |      102302      3.54%     83.59% |      473797     16.41%    100.00% (Unspecified)
board.cache_hierarchy.ruby_system.L1Cache_Controller.MM_W.Load::total      2887217                       (Unspecified)
board.cache_hierarchy.ruby_system.L1Cache_Controller.MM_W.Store |    25259964     30.61%     30.61% |     5163034      6.26%     36.86% |     3448328      4.18%     41.04% |     6505358      7.88%     48.93% |    11355115     13.76%     62.69% |    17914483     21.71%     84.39% |     3336722      4.04%     88.44% |     9542609     11.56%    100.00% (Unspecified)
board.cache_hierarchy.ruby_system.L1Cache_Controller.MM_W.Store::total     82525613                       (Unspecified)
board.cache_hierarchy.ruby_system.L1Cache_Controller.MM_W.L1_Replacement |           9     16.36%     16.36% |           0      0.00%     16.36% |           0      0.00%     16.36% |           0      0.00%     16.36% |           3      5.45%     21.82% |          19     34.55%     56.36% |           0      0.00%     56.36% |          24     43.64%    100.00% (Unspecified)
board.cache_hierarchy.ruby_system.L1Cache_Controller.MM_W.L1_Replacement::total           55                       (Unspecified)
board.cache_hierarchy.ruby_system.L1Cache_Controller.MM_W.Fwd_GETX |        6197     11.06%     11.06% |        7385     13.18%     24.23% |       10104     18.03%     42.26% |        7239     12.92%     55.17% |        7501     13.38%     68.56% |        6880     12.27%     80.83% |        5493      9.80%     90.63% |        5251      9.37%    100.00% (Unspecified)
board.cache_hierarchy.ruby_system.L1Cache_Controller.MM_W.Fwd_GETX::total        56050                       (Unspecified)
board.cache_hierarchy.ruby_system.L1Cache_Controller.MM_W.Fwd_GETS |       13618     10.49%     10.49% |       15704     12.10%     22.59% |       15887     12.24%     34.82% |       14180     10.92%     45.74% |       36556     28.16%     73.90% |       12326      9.49%     83.40% |        9843      7.58%     90.98% |       11713      9.02%    100.00% (Unspecified)
board.cache_hierarchy.ruby_system.L1Cache_Controller.MM_W.Fwd_GETS::total       129827                       (Unspecified)
board.cache_hierarchy.ruby_system.L1Cache_Controller.MM_W.Use_Timeout |     3701100     22.91%     22.91% |      936398      5.80%     28.70% |      677991      4.20%     32.90% |      878792      5.44%     38.34% |     2942531     18.21%     56.55% |     4224086     26.14%     82.69% |      624256      3.86%     86.55% |     2172758     13.45%    100.00% (Unspecified)
board.cache_hierarchy.ruby_system.L1Cache_Controller.MM_W.Use_Timeout::total     16157912                       (Unspecified)
board.cache_hierarchy.ruby_system.L1Cache_Controller.IM.L1_Replacement |           0      0.00%      0.00% |           0      0.00%      0.00% |           0      0.00%      0.00% |           0      0.00%      0.00% |           0      0.00%      0.00% |          13     20.63%     20.63% |           0      0.00%     20.63% |          50     79.37%    100.00% (Unspecified)
board.cache_hierarchy.ruby_system.L1Cache_Controller.IM.L1_Replacement::total           63                       (Unspecified)
board.cache_hierarchy.ruby_system.L1Cache_Controller.IM.Ack |      151161     29.14%     29.14% |      109714     21.15%     50.29% |       63082     12.16%     62.45% |       30681      5.91%     68.36% |       58731     11.32%     79.69% |       47408      9.14%     88.83% |       26937      5.19%     94.02% |       31032      5.98%    100.00% (Unspecified)
board.cache_hierarchy.ruby_system.L1Cache_Controller.IM.Ack::total       518746                       (Unspecified)
board.cache_hierarchy.ruby_system.L1Cache_Controller.IM.Exclusive_Data |     2369449     20.66%     20.66% |      675408      5.89%     26.56% |      501598      4.37%     30.93% |      663276      5.78%     36.71% |     2231510     19.46%     56.18% |     3113130     27.15%     83.33% |      443647      3.87%     87.20% |     1468174     12.80%    100.00% (Unspecified)
board.cache_hierarchy.ruby_system.L1Cache_Controller.IM.Exclusive_Data::total     11466192                       (Unspecified)
board.cache_hierarchy.ruby_system.L1Cache_Controller.IS.L1_Replacement |          24      4.07%      4.07% |          32      5.42%      9.49% |          10      1.69%     11.19% |           0      0.00%     11.19% |          15      2.54%     13.73% |         199     33.73%     47.46% |           8      1.36%     48.81% |         302     51.19%    100.00% (Unspecified)
board.cache_hierarchy.ruby_system.L1Cache_Controller.IS.L1_Replacement::total          590                       (Unspecified)
board.cache_hierarchy.ruby_system.L1Cache_Controller.IS.Data |     6636862     10.05%     10.05% |     3658896      5.54%     15.59% |     2481505      3.76%     19.35% |     3331341      5.04%     24.39% |     7712749     11.68%     36.07% |    32915151     49.84%     85.92% |     2370276      3.59%     89.51% |     6930102     10.49%    100.00% (Unspecified)
board.cache_hierarchy.ruby_system.L1Cache_Controller.IS.Data::total     66036882                       (Unspecified)
board.cache_hierarchy.ruby_system.L1Cache_Controller.IS.Exclusive_Data |      676496     11.95%     11.95% |      385281      6.81%     18.76% |      290129      5.13%     23.89% |      261115      4.61%     28.50% |      694753     12.28%     40.78% |     2184516     38.60%     79.38% |      185742      3.28%     82.66% |      981525     17.34%    100.00% (Unspecified)
board.cache_hierarchy.ruby_system.L1Cache_Controller.IS.Exclusive_Data::total      5659557                       (Unspecified)
board.cache_hierarchy.ruby_system.L1Cache_Controller.SM.L1_Replacement |         126     20.55%     20.55% |           0      0.00%     20.55% |           0      0.00%     20.55% |          11      1.79%     22.35% |          78     12.72%     35.07% |         317     51.71%     86.79% |           2      0.33%     87.11% |          79     12.89%    100.00% (Unspecified)
board.cache_hierarchy.ruby_system.L1Cache_Controller.SM.L1_Replacement::total          613                       (Unspecified)
board.cache_hierarchy.ruby_system.L1Cache_Controller.SM.Fwd_GETS |          22     27.50%     27.50% |           9     11.25%     38.75% |          13     16.25%     55.00% |          12     15.00%     70.00% |          13     16.25%     86.25% |           6      7.50%     93.75% |           4      5.00%     98.75% |           1      1.25%    100.00% (Unspecified)
board.cache_hierarchy.ruby_system.L1Cache_Controller.SM.Fwd_GETS::total           80                       (Unspecified)
board.cache_hierarchy.ruby_system.L1Cache_Controller.SM.Inv |         408      8.64%      8.64% |         641     13.57%     22.22% |         957     20.27%     42.48% |         740     15.67%     58.15% |         499     10.57%     68.72% |         562     11.90%     80.62% |         504     10.67%     91.30% |         411      8.70%    100.00% (Unspecified)
board.cache_hierarchy.ruby_system.L1Cache_Controller.SM.Inv::total         4722                       (Unspecified)
board.cache_hierarchy.ruby_system.L1Cache_Controller.SM.Ack |       66647     28.87%     28.87% |       24869     10.77%     39.64% |       24512     10.62%     50.26% |       18375      7.96%     58.22% |       30997     13.43%     71.65% |       26389     11.43%     83.08% |       11635      5.04%     88.12% |       27426     11.88%    100.00% (Unspecified)
board.cache_hierarchy.ruby_system.L1Cache_Controller.SM.Ack::total       230850                       (Unspecified)
board.cache_hierarchy.ruby_system.L1Cache_Controller.SM.Exclusive_Data |     1139964     33.24%     33.24% |      186618      5.44%     38.68% |      125896      3.67%     42.35% |      168322      4.91%     47.26% |      559812     16.32%     63.58% |      648343     18.90%     82.48% |      146937      4.28%     86.77% |      453929     13.23%    100.00% (Unspecified)
board.cache_hierarchy.ruby_system.L1Cache_Controller.SM.Exclusive_Data::total      3429821                       (Unspecified)
board.cache_hierarchy.ruby_system.L1Cache_Controller.OM.L1_Replacement |           0      0.00%      0.00% |           0      0.00%      0.00% |           0      0.00%      0.00% |           0      0.00%      0.00% |           1     20.00%     20.00% |           3     60.00%     80.00% |           0      0.00%     80.00% |           1     20.00%    100.00% (Unspecified)
board.cache_hierarchy.ruby_system.L1Cache_Controller.OM.L1_Replacement::total            5                       (Unspecified)
board.cache_hierarchy.ruby_system.L1Cache_Controller.OM.Own_GETX |        2900     19.08%     19.08% |        2396     15.76%     34.84% |        2186     14.38%     49.22% |        1334      8.78%     58.00% |        2473     16.27%     74.27% |        1534     10.09%     84.36% |        1412      9.29%     93.65% |         965      6.35%    100.00% (Unspecified)
board.cache_hierarchy.ruby_system.L1Cache_Controller.OM.Own_GETX::total        15200                       (Unspecified)
board.cache_hierarchy.ruby_system.L1Cache_Controller.OM.Fwd_GETX |          18      7.32%      7.32% |          34     13.82%     21.14% |          41     16.67%     37.80% |          31     12.60%     50.41% |          45     18.29%     68.70% |          29     11.79%     80.49% |          22      8.94%     89.43% |          26     10.57%    100.00% (Unspecified)
board.cache_hierarchy.ruby_system.L1Cache_Controller.OM.Fwd_GETX::total          246                       (Unspecified)
board.cache_hierarchy.ruby_system.L1Cache_Controller.OM.Fwd_GETS |          45      9.91%      9.91% |          70     15.42%     25.33% |          75     16.52%     41.85% |          75     16.52%     58.37% |          57     12.56%     70.93% |          47     10.35%     81.28% |          35      7.71%     88.99% |          50     11.01%    100.00% (Unspecified)
board.cache_hierarchy.ruby_system.L1Cache_Controller.OM.Fwd_GETS::total          454                       (Unspecified)
board.cache_hierarchy.ruby_system.L1Cache_Controller.OM.Ack |      294680     67.28%     67.28% |       26629      6.08%     73.36% |       13963      3.19%     76.55% |       20798      4.75%     81.29% |       19465      4.44%     85.74% |       20318      4.64%     90.38% |       28990      6.62%     97.00% |       13160      3.00%    100.00% (Unspecified)
board.cache_hierarchy.ruby_system.L1Cache_Controller.OM.Ack::total       438003                       (Unspecified)
board.cache_hierarchy.ruby_system.L1Cache_Controller.OM.All_acks |     3512313     23.55%     23.55% |      864422      5.80%     29.35% |      629680      4.22%     33.57% |      832932      5.59%     39.16% |     2793795     18.74%     57.90% |     3763007     25.24%     83.13% |      591996      3.97%     87.10% |     1923068     12.90%    100.00% (Unspecified)
board.cache_hierarchy.ruby_system.L1Cache_Controller.OM.All_acks::total     14911213                       (Unspecified)
board.cache_hierarchy.ruby_system.L1Cache_Controller.SI.Load |         812      3.60%      3.60% |         515      2.28%      5.88% |         412      1.82%      7.70% |         407      1.80%      9.50% |        4161     18.43%     27.93% |        7194     31.86%     59.79% |         257      1.14%     60.92% |        8824     39.08%    100.00% (Unspecified)
board.cache_hierarchy.ruby_system.L1Cache_Controller.SI.Load::total        22582                       (Unspecified)
board.cache_hierarchy.ruby_system.L1Cache_Controller.SI.Ifetch |         458      2.61%      2.61% |         323      1.84%      4.46% |         424      2.42%      6.88% |         303      1.73%      8.61% |        3441     19.65%     28.26% |        5048     28.82%     57.08% |         190      1.08%     58.16% |        7328     41.84%    100.00% (Unspecified)
board.cache_hierarchy.ruby_system.L1Cache_Controller.SI.Ifetch::total        17515                       (Unspecified)
board.cache_hierarchy.ruby_system.L1Cache_Controller.SI.Store |          24     77.42%     77.42% |           0      0.00%     77.42% |           0      0.00%     77.42% |           0      0.00%     77.42% |           1      3.23%     80.65% |           3      9.68%     90.32% |           0      0.00%     90.32% |           3      9.68%    100.00% (Unspecified)
board.cache_hierarchy.ruby_system.L1Cache_Controller.SI.Store::total           31                       (Unspecified)
board.cache_hierarchy.ruby_system.L1Cache_Controller.SI.Fwd_GETS |           3     10.71%     10.71% |           7     25.00%     35.71% |           3     10.71%     46.43% |           5     17.86%     64.29% |           1      3.57%     67.86% |           3     10.71%     78.57% |           4     14.29%     92.86% |           2      7.14%    100.00% (Unspecified)
board.cache_hierarchy.ruby_system.L1Cache_Controller.SI.Fwd_GETS::total           28                       (Unspecified)
board.cache_hierarchy.ruby_system.L1Cache_Controller.SI.Inv |           3     23.08%     23.08% |           0      0.00%     23.08% |           1      7.69%     30.77% |           1      7.69%     38.46% |           1      7.69%     46.15% |           2     15.38%     61.54% |           3     23.08%     84.62% |           2     15.38%    100.00% (Unspecified)
board.cache_hierarchy.ruby_system.L1Cache_Controller.SI.Inv::total           13                       (Unspecified)
board.cache_hierarchy.ruby_system.L1Cache_Controller.SI.Writeback_Ack |     3621394      8.46%      8.46% |     2292803      5.36%     13.82% |     1566608      3.66%     17.48% |     2034150      4.75%     22.24% |     2573834      6.01%     28.25% |    25368926     59.29%     87.54% |     1325056      3.10%     90.63% |     4007492      9.37%    100.00% (Unspecified)
board.cache_hierarchy.ruby_system.L1Cache_Controller.SI.Writeback_Ack::total     42790263                       (Unspecified)
board.cache_hierarchy.ruby_system.L1Cache_Controller.SI.Writeback_Ack_Data |     1847060      9.59%      9.59% |     1091955      5.67%     15.26% |      758365      3.94%     19.20% |     1046695      5.43%     24.63% |     4496570     23.34%     47.97% |     6820258     35.41%     83.38% |      815624      4.23%     87.62% |     2385014     12.38%    100.00% (Unspecified)
board.cache_hierarchy.ruby_system.L1Cache_Controller.SI.Writeback_Ack_Data::total     19261541                       (Unspecified)
board.cache_hierarchy.ruby_system.L1Cache_Controller.OI.Load |           0      0.00%      0.00% |           2     66.67%     66.67% |           0      0.00%     66.67% |           1     33.33%    100.00% |           0      0.00%    100.00% |           0      0.00%    100.00% |           0      0.00%    100.00% |           0      0.00%    100.00% (Unspecified)
board.cache_hierarchy.ruby_system.L1Cache_Controller.OI.Load::total            3                       (Unspecified)
board.cache_hierarchy.ruby_system.L1Cache_Controller.OI.Fwd_GETS |           0      0.00%      0.00% |           0      0.00%      0.00% |           0      0.00%      0.00% |           0      0.00%      0.00% |           0      0.00%      0.00% |           0      0.00%      0.00% |           1    100.00%    100.00% |           0      0.00%    100.00% (Unspecified)
board.cache_hierarchy.ruby_system.L1Cache_Controller.OI.Fwd_GETS::total            1                       (Unspecified)
board.cache_hierarchy.ruby_system.L1Cache_Controller.OI.Writeback_Ack_Data |        4083     15.93%     15.93% |        5627     21.95%     37.88% |        3673     14.33%     52.20% |        2516      9.81%     62.02% |        2658     10.37%     72.39% |        2546      9.93%     82.32% |        2359      9.20%     91.52% |        2174      8.48%    100.00% (Unspecified)
board.cache_hierarchy.ruby_system.L1Cache_Controller.OI.Writeback_Ack_Data::total        25636                       (Unspecified)
board.cache_hierarchy.ruby_system.L1Cache_Controller.MI.Load |         397     19.73%     19.73% |          70      3.48%     23.21% |          58      2.88%     26.09% |          95      4.72%     30.82% |         214     10.64%     41.45% |         787     39.12%     80.57% |          52      2.58%     83.15% |         339     16.85%    100.00% (Unspecified)
board.cache_hierarchy.ruby_system.L1Cache_Controller.MI.Load::total         2012                       (Unspecified)
board.cache_hierarchy.ruby_system.L1Cache_Controller.MI.Ifetch |         116     95.87%     95.87% |           0      0.00%     95.87% |           0      0.00%     95.87% |           0      0.00%     95.87% |           0      0.00%     95.87% |           0      0.00%     95.87% |           0      0.00%     95.87% |           5      4.13%    100.00% (Unspecified)
board.cache_hierarchy.ruby_system.L1Cache_Controller.MI.Ifetch::total          121                       (Unspecified)
board.cache_hierarchy.ruby_system.L1Cache_Controller.MI.Store |          29      5.70%      5.70% |          27      5.30%     11.00% |          13      2.55%     13.56% |          24      4.72%     18.27% |          70     13.75%     32.02% |         193     37.92%     69.94% |          14      2.75%     72.69% |         139     27.31%    100.00% (Unspecified)
board.cache_hierarchy.ruby_system.L1Cache_Controller.MI.Store::total          509                       (Unspecified)
board.cache_hierarchy.ruby_system.L1Cache_Controller.MI.Fwd_GETX |           1     20.00%     20.00% |           1     20.00%     40.00% |           0      0.00%     40.00% |           0      0.00%     40.00% |           0      0.00%     40.00% |           0      0.00%     40.00% |           0      0.00%     40.00% |           3     60.00%    100.00% (Unspecified)
board.cache_hierarchy.ruby_system.L1Cache_Controller.MI.Fwd_GETX::total            5                       (Unspecified)
board.cache_hierarchy.ruby_system.L1Cache_Controller.MI.Fwd_GETS |           3     42.86%     42.86% |           1     14.29%     57.14% |           0      0.00%     57.14% |           1     14.29%     71.43% |           0      0.00%     71.43% |           0      0.00%     71.43% |           0      0.00%     71.43% |           2     28.57%    100.00% (Unspecified)
board.cache_hierarchy.ruby_system.L1Cache_Controller.MI.Fwd_GETS::total            7                       (Unspecified)
board.cache_hierarchy.ruby_system.L1Cache_Controller.MI.Writeback_Ack_Data |     3855660     20.15%     20.15% |      987266      5.16%     25.32% |      732066      3.83%     29.14% |      990627      5.18%     34.32% |     3265844     17.07%     51.39% |     5813671     30.39%     81.78% |      688751      3.60%     85.38% |     2796270     14.62%    100.00% (Unspecified)
board.cache_hierarchy.ruby_system.L1Cache_Controller.MI.Writeback_Ack_Data::total     19130155                       (Unspecified)
board.cache_hierarchy.ruby_system.L1Cache_Controller.II.Writeback_Ack_Data |           1     20.00%     20.00% |           1     20.00%     40.00% |           0      0.00%     40.00% |           0      0.00%     40.00% |           0      0.00%     40.00% |           0      0.00%     40.00% |           0      0.00%     40.00% |           3     60.00%    100.00% (Unspecified)
board.cache_hierarchy.ruby_system.L1Cache_Controller.II.Writeback_Ack_Data::total            5                       (Unspecified)
board.cache_hierarchy.ruby_system.L1Cache_Controller.II.Writeback_Nack |           3     23.08%     23.08% |           0      0.00%     23.08% |           1      7.69%     30.77% |           1      7.69%     38.46% |           1      7.69%     46.15% |           2     15.38%     61.54% |           3     23.08%     84.62% |           2     15.38%    100.00% (Unspecified)
board.cache_hierarchy.ruby_system.L1Cache_Controller.II.Writeback_Nack::total           13                       (Unspecified)
board.cache_hierarchy.ruby_system.L2Cache_Controller.L1_GETS     71836060      0.00%      0.00% (Unspecified)
board.cache_hierarchy.ruby_system.L2Cache_Controller.L1_GETX     14932411      0.00%      0.00% (Unspecified)
board.cache_hierarchy.ruby_system.L2Cache_Controller.L1_PUTO        25633      0.00%      0.00% (Unspecified)
board.cache_hierarchy.ruby_system.L2Cache_Controller.L1_PUTX     19130179      0.00%      0.00% (Unspecified)
board.cache_hierarchy.ruby_system.L2Cache_Controller.L1_PUTS_only     49928771      0.00%      0.00% (Unspecified)
board.cache_hierarchy.ruby_system.L2Cache_Controller.L1_PUTS     12126318      0.00%      0.00% (Unspecified)
board.cache_hierarchy.ruby_system.L2Cache_Controller.Fwd_GETX        10775      0.00%      0.00% (Unspecified)
board.cache_hierarchy.ruby_system.L2Cache_Controller.Fwd_DMA        10058      0.00%      0.00% (Unspecified)
board.cache_hierarchy.ruby_system.L2Cache_Controller.Inv       130288      0.00%      0.00% (Unspecified)
board.cache_hierarchy.ruby_system.L2Cache_Controller.IntAck         1845      0.00%      0.00% (Unspecified)
board.cache_hierarchy.ruby_system.L2Cache_Controller.All_Acks     11758226      0.00%      0.00% (Unspecified)
board.cache_hierarchy.ruby_system.L2Cache_Controller.Data     31433134      0.00%      0.00% (Unspecified)
board.cache_hierarchy.ruby_system.L2Cache_Controller.Data_Exclusive         1203      0.00%      0.00% (Unspecified)
board.cache_hierarchy.ruby_system.L2Cache_Controller.L1_WBCLEANDATA     19261541      0.00%      0.00% (Unspecified)
board.cache_hierarchy.ruby_system.L2Cache_Controller.L1_WBDIRTYDATA     19155791      0.00%      0.00% (Unspecified)
board.cache_hierarchy.ruby_system.L2Cache_Controller.Writeback_Ack     11739186      0.00%      0.00% (Unspecified)
board.cache_hierarchy.ruby_system.L2Cache_Controller.Unblock    108827150      0.00%      0.00% (Unspecified)
board.cache_hierarchy.ruby_system.L2Cache_Controller.Exclusive_Unblock     20570770      0.00%      0.00% (Unspecified)
board.cache_hierarchy.ruby_system.L2Cache_Controller.DmaAck         8396      0.00%      0.00% (Unspecified)
board.cache_hierarchy.ruby_system.L2Cache_Controller.L2_Replacement     30768209      0.00%      0.00% (Unspecified)
board.cache_hierarchy.ruby_system.L2Cache_Controller.I.L1_GETS     19676724      0.00%      0.00% (Unspecified)
board.cache_hierarchy.ruby_system.L2Cache_Controller.I.L1_GETX      8396307      0.00%      0.00% (Unspecified)
board.cache_hierarchy.ruby_system.L2Cache_Controller.I.Inv       127626      0.00%      0.00% (Unspecified)
board.cache_hierarchy.ruby_system.L2Cache_Controller.ILS.L1_GETS      2254793      0.00%      0.00% (Unspecified)
board.cache_hierarchy.ruby_system.L2Cache_Controller.ILS.L1_GETX      3133811      0.00%      0.00% (Unspecified)
board.cache_hierarchy.ruby_system.L2Cache_Controller.ILS.L1_PUTS_only     16933043      0.00%      0.00% (Unspecified)
board.cache_hierarchy.ruby_system.L2Cache_Controller.ILS.L1_PUTS      2328499      0.00%      0.00% (Unspecified)
board.cache_hierarchy.ruby_system.L2Cache_Controller.ILS.Inv         1543      0.00%      0.00% (Unspecified)
board.cache_hierarchy.ruby_system.L2Cache_Controller.ILX.L1_GETS      1014918      0.00%      0.00% (Unspecified)
board.cache_hierarchy.ruby_system.L2Cache_Controller.ILX.L1_GETX       421204      0.00%      0.00% (Unspecified)
board.cache_hierarchy.ruby_system.L2Cache_Controller.ILX.L1_PUTX     19130160      0.00%      0.00% (Unspecified)
board.cache_hierarchy.ruby_system.L2Cache_Controller.ILX.L1_PUTS           13      0.00%      0.00% (Unspecified)
board.cache_hierarchy.ruby_system.L2Cache_Controller.ILX.Fwd_GETX         1009      0.00%      0.00% (Unspecified)
board.cache_hierarchy.ruby_system.L2Cache_Controller.ILX.Fwd_DMA         8395      0.00%      0.00% (Unspecified)
board.cache_hierarchy.ruby_system.L2Cache_Controller.ILOX.L1_GETS        23838      0.00%      0.00% (Unspecified)
board.cache_hierarchy.ruby_system.L2Cache_Controller.ILOX.L1_GETX         1945      0.00%      0.00% (Unspecified)
board.cache_hierarchy.ruby_system.L2Cache_Controller.ILOX.L1_PUTO         7639      0.00%      0.00% (Unspecified)
board.cache_hierarchy.ruby_system.L2Cache_Controller.ILOX.Fwd_GETX           95      0.00%      0.00% (Unspecified)
board.cache_hierarchy.ruby_system.L2Cache_Controller.ILOSX.L1_GETS       469444      0.00%      0.00% (Unspecified)
board.cache_hierarchy.ruby_system.L2Cache_Controller.ILOSX.L1_GETX       222607      0.00%      0.00% (Unspecified)
board.cache_hierarchy.ruby_system.L2Cache_Controller.ILOSX.L1_PUTO        17990      0.00%      0.00% (Unspecified)
board.cache_hierarchy.ruby_system.L2Cache_Controller.ILOSX.L1_PUTX            7      0.00%      0.00% (Unspecified)
board.cache_hierarchy.ruby_system.L2Cache_Controller.ILOSX.L1_PUTS_only        33530      0.00%      0.00% (Unspecified)
board.cache_hierarchy.ruby_system.L2Cache_Controller.ILOSX.L1_PUTS        50621      0.00%      0.00% (Unspecified)
board.cache_hierarchy.ruby_system.L2Cache_Controller.ILOSX.Fwd_GETX           99      0.00%      0.00% (Unspecified)
board.cache_hierarchy.ruby_system.L2Cache_Controller.ILOSX.Fwd_DMA            1      0.00%      0.00% (Unspecified)
board.cache_hierarchy.ruby_system.L2Cache_Controller.S.L1_GETS     33493610      0.00%      0.00% (Unspecified)
board.cache_hierarchy.ruby_system.L2Cache_Controller.S.L1_GETX        79336      0.00%      0.00% (Unspecified)
board.cache_hierarchy.ruby_system.L2Cache_Controller.S.Inv          970      0.00%      0.00% (Unspecified)
board.cache_hierarchy.ruby_system.L2Cache_Controller.S.L2_Replacement     16310487      0.00%      0.00% (Unspecified)
board.cache_hierarchy.ruby_system.L2Cache_Controller.OLSX.L1_GETS        64798      0.00%      0.00% (Unspecified)
board.cache_hierarchy.ruby_system.L2Cache_Controller.OLSX.L1_GETX         5077      0.00%      0.00% (Unspecified)
board.cache_hierarchy.ruby_system.L2Cache_Controller.OLSX.L1_PUTS_only         7141      0.00%      0.00% (Unspecified)
board.cache_hierarchy.ruby_system.L2Cache_Controller.OLSX.L1_PUTS        56117      0.00%      0.00% (Unspecified)
board.cache_hierarchy.ruby_system.L2Cache_Controller.OLSX.Fwd_GETX           24      0.00%      0.00% (Unspecified)
board.cache_hierarchy.ruby_system.L2Cache_Controller.OLSX.Fwd_DMA            1      0.00%      0.00% (Unspecified)
board.cache_hierarchy.ruby_system.L2Cache_Controller.OLSX.L2_Replacement         5751      0.00%      0.00% (Unspecified)
board.cache_hierarchy.ruby_system.L2Cache_Controller.SLS.L1_GETS      9803219      0.00%      0.00% (Unspecified)
board.cache_hierarchy.ruby_system.L2Cache_Controller.SLS.L1_GETX       146957      0.00%      0.00% (Unspecified)
board.cache_hierarchy.ruby_system.L2Cache_Controller.SLS.L1_PUTS_only     32954932      0.00%      0.00% (Unspecified)
board.cache_hierarchy.ruby_system.L2Cache_Controller.SLS.L1_PUTS      9687922      0.00%      0.00% (Unspecified)
board.cache_hierarchy.ruby_system.L2Cache_Controller.SLS.Inv          149      0.00%      0.00% (Unspecified)
board.cache_hierarchy.ruby_system.L2Cache_Controller.SLS.L2_Replacement      2718429      0.00%      0.00% (Unspecified)
board.cache_hierarchy.ruby_system.L2Cache_Controller.M.L1_GETS      4895096      0.00%      0.00% (Unspecified)
board.cache_hierarchy.ruby_system.L2Cache_Controller.M.L1_GETX      2503969      0.00%      0.00% (Unspecified)
board.cache_hierarchy.ruby_system.L2Cache_Controller.M.Fwd_GETX         9548      0.00%      0.00% (Unspecified)
board.cache_hierarchy.ruby_system.L2Cache_Controller.M.Fwd_DMA         1661      0.00%      0.00% (Unspecified)
board.cache_hierarchy.ruby_system.L2Cache_Controller.M.L2_Replacement     11733435      0.00%      0.00% (Unspecified)
board.cache_hierarchy.ruby_system.L2Cache_Controller.IFGX.Data_Exclusive         1104      0.00%      0.00% (Unspecified)
board.cache_hierarchy.ruby_system.L2Cache_Controller.IFGXX.IntAck            1      0.00%      0.00% (Unspecified)
board.cache_hierarchy.ruby_system.L2Cache_Controller.IFGXX.Data_Exclusive           99      0.00%      0.00% (Unspecified)
board.cache_hierarchy.ruby_system.L2Cache_Controller.IFGXXD.IntAck           98      0.00%      0.00% (Unspecified)
board.cache_hierarchy.ruby_system.L2Cache_Controller.IFGXXD.All_Acks           99      0.00%      0.00% (Unspecified)
board.cache_hierarchy.ruby_system.L2Cache_Controller.OLSF.IntAck           24      0.00%      0.00% (Unspecified)
board.cache_hierarchy.ruby_system.L2Cache_Controller.OLSF.All_Acks           24      0.00%      0.00% (Unspecified)
board.cache_hierarchy.ruby_system.L2Cache_Controller.ILOXW.L1_GETX            1      0.00%      0.00% (Unspecified)
board.cache_hierarchy.ruby_system.L2Cache_Controller.ILOXW.L1_WBDIRTYDATA         7639      0.00%      0.00% (Unspecified)
board.cache_hierarchy.ruby_system.L2Cache_Controller.ILOXW.Unblock        33530      0.00%      0.00% (Unspecified)
board.cache_hierarchy.ruby_system.L2Cache_Controller.ILOSXW.L1_GETX            1      0.00%      0.00% (Unspecified)
board.cache_hierarchy.ruby_system.L2Cache_Controller.ILOSXW.L1_PUTO            3      0.00%      0.00% (Unspecified)
board.cache_hierarchy.ruby_system.L2Cache_Controller.ILOSXW.L1_PUTS_only            1      0.00%      0.00% (Unspecified)
board.cache_hierarchy.ruby_system.L2Cache_Controller.ILOSXW.L1_PUTS            3      0.00%      0.00% (Unspecified)
board.cache_hierarchy.ruby_system.L2Cache_Controller.ILOSXW.L1_WBDIRTYDATA        17997      0.00%      0.00% (Unspecified)
board.cache_hierarchy.ruby_system.L2Cache_Controller.ILOSXW.Unblock        50621      0.00%      0.00% (Unspecified)
board.cache_hierarchy.ruby_system.L2Cache_Controller.ILSW.L1_GETS           25      0.00%      0.00% (Unspecified)
board.cache_hierarchy.ruby_system.L2Cache_Controller.ILSW.L1_GETX            1      0.00%      0.00% (Unspecified)
board.cache_hierarchy.ruby_system.L2Cache_Controller.ILSW.L1_PUTS          725      0.00%      0.00% (Unspecified)
board.cache_hierarchy.ruby_system.L2Cache_Controller.ILSW.L1_WBCLEANDATA      2328499      0.00%      0.00% (Unspecified)
board.cache_hierarchy.ruby_system.L2Cache_Controller.IW.L1_GETS           15      0.00%      0.00% (Unspecified)
board.cache_hierarchy.ruby_system.L2Cache_Controller.IW.L1_WBCLEANDATA     16933042      0.00%      0.00% (Unspecified)
board.cache_hierarchy.ruby_system.L2Cache_Controller.ILXW.L1_GETS            6      0.00%      0.00% (Unspecified)
board.cache_hierarchy.ruby_system.L2Cache_Controller.ILXW.L1_GETX            5      0.00%      0.00% (Unspecified)
board.cache_hierarchy.ruby_system.L2Cache_Controller.ILXW.L1_WBDIRTYDATA     19130155      0.00%      0.00% (Unspecified)
board.cache_hierarchy.ruby_system.L2Cache_Controller.ILXW.Unblock            5      0.00%      0.00% (Unspecified)
board.cache_hierarchy.ruby_system.L2Cache_Controller.SLSW.L1_GETS          441      0.00%      0.00% (Unspecified)
board.cache_hierarchy.ruby_system.L2Cache_Controller.SLSW.L1_PUTS         1932      0.00%      0.00% (Unspecified)
board.cache_hierarchy.ruby_system.L2Cache_Controller.SLSW.Unblock      9687922      0.00%      0.00% (Unspecified)
board.cache_hierarchy.ruby_system.L2Cache_Controller.SLSW.L2_Replacement           41      0.00%      0.00% (Unspecified)
board.cache_hierarchy.ruby_system.L2Cache_Controller.SW.L1_GETS          173      0.00%      0.00% (Unspecified)
board.cache_hierarchy.ruby_system.L2Cache_Controller.SW.Unblock     32954932      0.00%      0.00% (Unspecified)
board.cache_hierarchy.ruby_system.L2Cache_Controller.SW.L2_Replacement           64      0.00%      0.00% (Unspecified)
board.cache_hierarchy.ruby_system.L2Cache_Controller.OXW.Unblock         7141      0.00%      0.00% (Unspecified)
board.cache_hierarchy.ruby_system.L2Cache_Controller.OLSXW.L1_GETS            1      0.00%      0.00% (Unspecified)
board.cache_hierarchy.ruby_system.L2Cache_Controller.OLSXW.L1_PUTS            2      0.00%      0.00% (Unspecified)
board.cache_hierarchy.ruby_system.L2Cache_Controller.OLSXW.Unblock        56117      0.00%      0.00% (Unspecified)
board.cache_hierarchy.ruby_system.L2Cache_Controller.OLSXW.L2_Replacement            2      0.00%      0.00% (Unspecified)
board.cache_hierarchy.ruby_system.L2Cache_Controller.IFLS.L1_GETS        12441      0.00%      0.00% (Unspecified)
board.cache_hierarchy.ruby_system.L2Cache_Controller.IFLS.L1_GETX          175      0.00%      0.00% (Unspecified)
board.cache_hierarchy.ruby_system.L2Cache_Controller.IFLS.L1_PUTS_only           22      0.00%      0.00% (Unspecified)
board.cache_hierarchy.ruby_system.L2Cache_Controller.IFLS.L1_PUTS           40      0.00%      0.00% (Unspecified)
board.cache_hierarchy.ruby_system.L2Cache_Controller.IFLS.Unblock      2254793      0.00%      0.00% (Unspecified)
board.cache_hierarchy.ruby_system.L2Cache_Controller.IFLOX.L1_GETS            5      0.00%      0.00% (Unspecified)
board.cache_hierarchy.ruby_system.L2Cache_Controller.IFLOX.L1_GETX            1      0.00%      0.00% (Unspecified)
board.cache_hierarchy.ruby_system.L2Cache_Controller.IFLOX.Unblock        23838      0.00%      0.00% (Unspecified)
board.cache_hierarchy.ruby_system.L2Cache_Controller.IFLOX.Exclusive_Unblock         5077      0.00%      0.00% (Unspecified)
board.cache_hierarchy.ruby_system.L2Cache_Controller.IFLOXX.L1_GETS        59725      0.00%      0.00% (Unspecified)
board.cache_hierarchy.ruby_system.L2Cache_Controller.IFLOXX.L1_GETX        12095      0.00%      0.00% (Unspecified)
board.cache_hierarchy.ruby_system.L2Cache_Controller.IFLOXX.L1_PUTX           12      0.00%      0.00% (Unspecified)
board.cache_hierarchy.ruby_system.L2Cache_Controller.IFLOXX.Unblock       250457      0.00%      0.00% (Unspecified)
board.cache_hierarchy.ruby_system.L2Cache_Controller.IFLOXX.Exclusive_Unblock      1187610      0.00%      0.00% (Unspecified)
board.cache_hierarchy.ruby_system.L2Cache_Controller.IFLOSX.L1_GETS         2150      0.00%      0.00% (Unspecified)
board.cache_hierarchy.ruby_system.L2Cache_Controller.IFLOSX.L1_GETX         1060      0.00%      0.00% (Unspecified)
board.cache_hierarchy.ruby_system.L2Cache_Controller.IFLOSX.L1_PUTO            1      0.00%      0.00% (Unspecified)
board.cache_hierarchy.ruby_system.L2Cache_Controller.IFLOSX.L1_PUTS            2      0.00%      0.00% (Unspecified)
board.cache_hierarchy.ruby_system.L2Cache_Controller.IFLOSX.Unblock       469444      0.00%      0.00% (Unspecified)
board.cache_hierarchy.ruby_system.L2Cache_Controller.IFLXO.L1_GETS         4828      0.00%      0.00% (Unspecified)
board.cache_hierarchy.ruby_system.L2Cache_Controller.IFLXO.L1_GETX          966      0.00%      0.00% (Unspecified)
board.cache_hierarchy.ruby_system.L2Cache_Controller.IFLXO.Exclusive_Unblock       222607      0.00%      0.00% (Unspecified)
board.cache_hierarchy.ruby_system.L2Cache_Controller.IGS.L1_GETS        53973      0.00%      0.00% (Unspecified)
board.cache_hierarchy.ruby_system.L2Cache_Controller.IGS.L1_GETX           17      0.00%      0.00% (Unspecified)
board.cache_hierarchy.ruby_system.L2Cache_Controller.IGS.Data     19676723      0.00%      0.00% (Unspecified)
board.cache_hierarchy.ruby_system.L2Cache_Controller.IGS.Unblock     19676723      0.00%      0.00% (Unspecified)
board.cache_hierarchy.ruby_system.L2Cache_Controller.IGM.L1_GETS           14      0.00%      0.00% (Unspecified)
board.cache_hierarchy.ruby_system.L2Cache_Controller.IGM.L1_GETX         2427      0.00%      0.00% (Unspecified)
board.cache_hierarchy.ruby_system.L2Cache_Controller.IGM.Data      8475643      0.00%      0.00% (Unspecified)
board.cache_hierarchy.ruby_system.L2Cache_Controller.IGMLS.L1_GETS          598      0.00%      0.00% (Unspecified)
board.cache_hierarchy.ruby_system.L2Cache_Controller.IGMLS.L1_GETX         4305      0.00%      0.00% (Unspecified)
board.cache_hierarchy.ruby_system.L2Cache_Controller.IGMLS.L1_PUTS_only            3      0.00%      0.00% (Unspecified)
board.cache_hierarchy.ruby_system.L2Cache_Controller.IGMLS.L1_PUTS            9      0.00%      0.00% (Unspecified)
board.cache_hierarchy.ruby_system.L2Cache_Controller.IGMLS.Data      3280768      0.00%      0.00% (Unspecified)
board.cache_hierarchy.ruby_system.L2Cache_Controller.IGMO.All_Acks     11756411      0.00%      0.00% (Unspecified)
board.cache_hierarchy.ruby_system.L2Cache_Controller.IGMOU.L1_GETS           50      0.00%      0.00% (Unspecified)
board.cache_hierarchy.ruby_system.L2Cache_Controller.IGMOU.L1_GETX          102      0.00%      0.00% (Unspecified)
board.cache_hierarchy.ruby_system.L2Cache_Controller.IGMOU.L1_PUTS            1      0.00%      0.00% (Unspecified)
board.cache_hierarchy.ruby_system.L2Cache_Controller.IGMOU.Exclusive_Unblock     11756411      0.00%      0.00% (Unspecified)
board.cache_hierarchy.ruby_system.L2Cache_Controller.II.IntAck         1722      0.00%      0.00% (Unspecified)
board.cache_hierarchy.ruby_system.L2Cache_Controller.II.All_Acks         1692      0.00%      0.00% (Unspecified)
board.cache_hierarchy.ruby_system.L2Cache_Controller.MM.L1_GETX            6      0.00%      0.00% (Unspecified)
board.cache_hierarchy.ruby_system.L2Cache_Controller.MM.Exclusive_Unblock      2503969      0.00%      0.00% (Unspecified)
board.cache_hierarchy.ruby_system.L2Cache_Controller.SS.L1_GETS         2378      0.00%      0.00% (Unspecified)
board.cache_hierarchy.ruby_system.L2Cache_Controller.SS.Unblock     33493610      0.00%      0.00% (Unspecified)
board.cache_hierarchy.ruby_system.L2Cache_Controller.OO.L1_GETS           42      0.00%      0.00% (Unspecified)
board.cache_hierarchy.ruby_system.L2Cache_Controller.OO.L1_GETX            1      0.00%      0.00% (Unspecified)
board.cache_hierarchy.ruby_system.L2Cache_Controller.OO.Exclusive_Unblock      4895096      0.00%      0.00% (Unspecified)
board.cache_hierarchy.ruby_system.L2Cache_Controller.OLSXS.L1_GETS           10      0.00%      0.00% (Unspecified)
[...]
board.processor.cores7.core.fetch.nisnDist::5     16387920      1.96%     81.23% # Number of instructions fetched each cycle (Total) (Count)
board.processor.cores7.core.fetch.nisnDist::6     13837582      1.66%     82.89% # Number of instructions fetched each cycle (Total) (Count)
board.processor.cores7.core.fetch.nisnDist::7     11205699      1.34%     84.24% # Number of instructions fetched each cycle (Total) (Count)
board.processor.cores7.core.fetch.nisnDist::8    131517153     15.76%    100.00% # Number of instructions fetched each cycle (Total) (Count)
board.processor.cores7.core.fetch.nisnDist::overflows            0      0.00%    100.00% # Number of instructions fetched each cycle (Total) (Count)
board.processor.cores7.core.fetch.nisnDist::min_value            0                       # Number of instructions fetched each cycle (Total) (Count)
board.processor.cores7.core.fetch.nisnDist::max_value            8                       # Number of instructions fetched each cycle (Total) (Count)
board.processor.cores7.core.fetch.nisnDist::total    834258058                       # Number of instructions fetched each cycle (Total) (Count)
board.processor.cores7.core.fetchStats0.numInsts    687324981                       # Number of instructions fetched (thread level) (Count)
board.processor.cores7.core.fetchStats0.numOps            0                       # Number of ops (including micro ops) fetched (thread level) (Count)
board.processor.cores7.core.fetchStats0.fetchRate     0.748353                       # Number of inst fetches per cycle ((Count/Cycle))
board.processor.cores7.core.fetchStats0.numBranches    175558648                       # Number of branches fetched (Count)
board.processor.cores7.core.fetchStats0.branchRate     0.191147                       # Number of branch fetches per cycle (Ratio)
board.processor.cores7.core.fetchStats0.icacheStallCycles    150510326                       # ICache total stall cycles (Cycle)
board.processor.cores7.core.fetchStats0.numFetchSuspends            0                       # Number of times Execute suspended instruction fetching (Count)
board.processor.cores7.core.iew.idleCycles            0                       # Number of cycles IEW is idle (Cycle)
board.processor.cores7.core.iew.squashCycles      8141101                       # Number of cycles IEW is squashing (Cycle)
board.processor.cores7.core.iew.blockCycles    134191167                       # Number of cycles IEW is blocking (Cycle)
board.processor.cores7.core.iew.unblockCycles     40057144                       # Number of cycles IEW is unblocking (Cycle)
board.processor.cores7.core.iew.dispatchedInsts   1255832794                       # Number of instructions dispatched to IQ (Count)
board.processor.cores7.core.iew.dispSquashedInsts      1023953                       # Number of squashed instructions skipped by dispatch (Count)
board.processor.cores7.core.iew.dispLoadInsts    175533466                       # Number of dispatched load instructions (Count)
board.processor.cores7.core.iew.dispStoreInsts    108899011                       # Number of dispatched store instructions (Count)
board.processor.cores7.core.iew.dispNonSpecInsts      2279780                       # Number of dispatched non-speculative instructions (Count)
board.processor.cores7.core.iew.iqFullEvents      1003593                       # Number of times the IQ has become full, causing a stall (Count)
board.processor.cores7.core.iew.lsqFullEvents     38367738                       # Number of times the LSQ has become full, causing a stall (Count)
board.processor.cores7.core.iew.memOrderViolationEvents       609733                       # Number of memory order violations (Count)
board.processor.cores7.core.iew.predictedTakenIncorrect      2558156                       # Number of branches that were predicted taken incorrectly (Count)
board.processor.cores7.core.iew.predictedNotTakenIncorrect      5670376                       # Number of branches that were predicted not taken incorrectly (Count)
board.processor.cores7.core.iew.branchMispredicts      8228532                       # Number of branch mispredicts detected at execute (Count)
board.processor.cores7.core.iew.instsToCommit   1150241390                       # Cumulative count of insts sent to commit (Count)
board.processor.cores7.core.iew.writebackCount   1144880050                       # Cumulative count of insts written-back (Count)
board.processor.cores7.core.iew.producerInst    797639082                       # Number of instructions producing a value (Count)
board.processor.cores7.core.iew.consumerInst   1283677905                       # Number of instructions consuming a value (Count)
board.processor.cores7.core.iew.wbRate       1.246535                       # Insts written-back per cycle ((Count/Cycle))
board.processor.cores7.core.iew.wbFanout     0.621370                       # Average fanout of values written-back ((Count/Count))
board.processor.cores7.core.interrupts.clk_domain.clock         5328                       # Clock period in ticks (Tick)
board.processor.cores7.core.lsq0.forwLoads     18085157                       # Number of loads that had data forwarded from stores (Count)
board.processor.cores7.core.lsq0.squashedLoads     44675790                       # Number of loads squashed (Count)
board.processor.cores7.core.lsq0.ignoredResponses        91728                       # Number of memory responses ignored because the instruction is squashed (Count)
board.processor.cores7.core.lsq0.memOrderViolation       609733                       # Number of memory ordering violations (Count)
board.processor.cores7.core.lsq0.squashedStores     26718844                       # Number of stores squashed (Count)
board.processor.cores7.core.lsq0.rescheduledLoads       116966                       # Number of loads that were rescheduled (Count)
board.processor.cores7.core.lsq0.blockedByCache       106258                       # Number of times an access to memory failed due to the cache being blocked (Count)
board.processor.cores7.core.lsq0.loadToUse::samples    130727576                       # Distribution of cycle latency between the first time a load is issued and its completion (Unspecified)
board.processor.cores7.core.lsq0.loadToUse::mean     8.941629                       # Distribution of cycle latency between the first time a load is issued and its completion (Unspecified)
board.processor.cores7.core.lsq0.loadToUse::stdev    39.502672                       # Distribution of cycle latency between the first time a load is issued and its completion (Unspecified)
board.processor.cores7.core.lsq0.loadToUse::0-9    122925726     94.03%     94.03% # Distribution of cycle latency between the first time a load is issued and its completion (Unspecified)
board.processor.cores7.core.lsq0.loadToUse::10-19      2872281      2.20%     96.23% # Distribution of cycle latency between the first time a load is issued and its completion (Unspecified)
board.processor.cores7.core.lsq0.loadToUse::20-29       930607      0.71%     96.94% # Distribution of cycle latency between the first time a load is issued and its completion (Unspecified)
board.processor.cores7.core.lsq0.loadToUse::30-39       294660      0.23%     97.17% # Distribution of cycle latency between the first time a load is issued and its completion (Unspecified)
board.processor.cores7.core.lsq0.loadToUse::40-49       142000      0.11%     97.28% # Distribution of cycle latency between the first time a load is issued and its completion (Unspecified)
board.processor.cores7.core.lsq0.loadToUse::50-59        68808      0.05%     97.33% # Distribution of cycle latency between the first time a load is issued and its completion (Unspecified)
board.processor.cores7.core.lsq0.loadToUse::60-69        39793      0.03%     97.36% # Distribution of cycle latency between the first time a load is issued and its completion (Unspecified)
board.processor.cores7.core.lsq0.loadToUse::70-79        30141      0.02%     97.38% # Distribution of cycle latency between the first time a load is issued and its completion (Unspecified)
board.processor.cores7.core.lsq0.loadToUse::80-89        28870      0.02%     97.40% # Distribution of cycle latency between the first time a load is issued and its completion (Unspecified)
board.processor.cores7.core.lsq0.loadToUse::90-99        36831      0.03%     97.43% # Distribution of cycle latency between the first time a load is issued and its completion (Unspecified)
board.processor.cores7.core.lsq0.loadToUse::100-109        39905      0.03%     97.46% # Distribution of cycle latency between the first time a load is issued and its completion (Unspecified)
board.processor.cores7.core.lsq0.loadToUse::110-119        85526      0.07%     97.53% # Distribution of cycle latency between the first time a load is issued and its completion (Unspecified)
board.processor.cores7.core.lsq0.loadToUse::120-129       123038      0.09%     97.62% # Distribution of cycle latency between the first time a load is issued and its completion (Unspecified)
board.processor.cores7.core.lsq0.loadToUse::130-139       335142      0.26%     97.88% # Distribution of cycle latency between the first time a load is issued and its completion (Unspecified)
board.processor.cores7.core.lsq0.loadToUse::140-149       732540      0.56%     98.44% # Distribution of cycle latency between the first time a load is issued and its completion (Unspecified)
board.processor.cores7.core.lsq0.loadToUse::150-159       215615      0.16%     98.60% # Distribution of cycle latency between the first time a load is issued and its completion (Unspecified)
board.processor.cores7.core.lsq0.loadToUse::160-169        85812      0.07%     98.67% # Distribution of cycle latency between the first time a load is issued and its completion (Unspecified)
board.processor.cores7.core.lsq0.loadToUse::170-179        69391      0.05%     98.72% # Distribution of cycle latency between the first time a load is issued and its completion (Unspecified)
board.processor.cores7.core.lsq0.loadToUse::180-189       187113      0.14%     98.86% # Distribution of cycle latency between the first time a load is issued and its completion (Unspecified)
board.processor.cores7.core.lsq0.loadToUse::190-199       118057      0.09%     98.96% # Distribution of cycle latency between the first time a load is issued and its completion (Unspecified)
board.processor.cores7.core.lsq0.loadToUse::200-209        67912      0.05%     99.01% # Distribution of cycle latency between the first time a load is issued and its completion (Unspecified)
board.processor.cores7.core.lsq0.loadToUse::210-219        65507      0.05%     99.06% # Distribution of cycle latency between the first time a load is issued and its completion (Unspecified)
board.processor.cores7.core.lsq0.loadToUse::220-229       310343      0.24%     99.29% # Distribution of cycle latency between the first time a load is issued and its completion (Unspecified)
board.processor.cores7.core.lsq0.loadToUse::230-239       194239      0.15%     99.44% # Distribution of cycle latency between the first time a load is issued and its completion (Unspecified)
board.processor.cores7.core.lsq0.loadToUse::240-249       123767      0.09%     99.54% # Distribution of cycle latency between the first time a load is issued and its completion (Unspecified)
board.processor.cores7.core.lsq0.loadToUse::250-259        50365      0.04%     99.58% # Distribution of cycle latency between the first time a load is issued and its completion (Unspecified)
board.processor.cores7.core.lsq0.loadToUse::260-269        39547      0.03%     99.61% # Distribution of cycle latency between the first time a load is issued and its completion (Unspecified)
board.processor.cores7.core.lsq0.loadToUse::270-279        31977      0.02%     99.63% # Distribution of cycle latency between the first time a load is issued and its completion (Unspecified)
board.processor.cores7.core.lsq0.loadToUse::280-289        33836      0.03%     99.66% # Distribution of cycle latency between the first time a load is issued and its completion (Unspecified)
board.processor.cores7.core.lsq0.loadToUse::290-299        27140      0.02%     99.68% # Distribution of cycle latency between the first time a load is issued and its completion (Unspecified)
board.processor.cores7.core.lsq0.loadToUse::overflows       421087      0.32%    100.00% # Distribution of cycle latency between the first time a load is issued and its completion (Unspecified)
board.processor.cores7.core.lsq0.loadToUse::min_value            2                       # Distribution of cycle latency between the first time a load is issued and its completion (Unspecified)
board.processor.cores7.core.lsq0.loadToUse::max_value         9456                       # Distribution of cycle latency between the first time a load is issued and its completion (Unspecified)
board.processor.cores7.core.lsq0.loadToUse::total    130727576                       # Distribution of cycle latency between the first time a load is issued and its completion (Unspecified)
board.processor.cores7.core.mmu.dtb.rdAccesses    163265170                       # TLB accesses on read requests (Count)
board.processor.cores7.core.mmu.dtb.wrAccesses     98487705                       # TLB accesses on write requests (Count)
board.processor.cores7.core.mmu.dtb.rdMisses      3447203                       # TLB misses on read requests (Count)
board.processor.cores7.core.mmu.dtb.wrMisses       663990                       # TLB misses on write requests (Count)
board.processor.cores7.core.mmu.dtb.walker.power_state.pwrStateResidencyTicks::UNDEFINED 13803192525465                       # Cumulative time (in ticks) in various power states (Tick)
board.processor.cores7.core.mmu.itb.rdAccesses            0                       # TLB accesses on read requests (Count)
board.processor.cores7.core.mmu.itb.wrAccesses     94442641                       # TLB accesses on write requests (Count)
board.processor.cores7.core.mmu.itb.rdMisses            0                       # TLB misses on read requests (Count)
board.processor.cores7.core.mmu.itb.wrMisses       909914                       # TLB misses on write requests (Count)
board.processor.cores7.core.mmu.itb.walker.power_state.pwrStateResidencyTicks::UNDEFINED 13803192525465                       # Cumulative time (in ticks) in various power states (Tick)
board.processor.cores7.core.power_state.numTransitions        26899                       # Number of power state transitions (Count)
board.processor.cores7.core.power_state.ticksClkGated::samples        13450                       # Distribution of time spent in the clock gated state (Tick)
board.processor.cores7.core.power_state.ticksClkGated::mean 1003520676.234275                       # Distribution of time spent in the clock gated state (Tick)
board.processor.cores7.core.power_state.ticksClkGated::stdev 4653594922.224407                       # Distribution of time spent in the clock gated state (Tick)
board.processor.cores7.core.power_state.ticksClkGated::1000-5e+10        13449     99.99%     99.99% # Distribution of time spent in the clock gated state (Tick)
board.processor.cores7.core.power_state.ticksClkGated::5e+11-5.5e+11            1      0.01%    100.00% # Distribution of time spent in the clock gated state (Tick)
board.processor.cores7.core.power_state.ticksClkGated::min_value        14986                       # Distribution of time spent in the clock gated state (Tick)
board.processor.cores7.core.power_state.ticksClkGated::max_value 539657439697                       # Distribution of time spent in the clock gated state (Tick)
board.processor.cores7.core.power_state.ticksClkGated::total        13450                       # Distribution of time spent in the clock gated state (Tick)
board.processor.cores7.core.power_state.pwrStateResidencyTicks::ON 305839430114                       # Cumulative time (in ticks) in various power states (Tick)
board.processor.cores7.core.power_state.pwrStateResidencyTicks::CLK_GATED 13497353095351                       # Cumulative time (in ticks) in various power states (Tick)
board.processor.cores7.core.rename.squashCycles      8141101                       # Number of cycles rename is squashing (Cycle)
board.processor.cores7.core.rename.idleCycles    155717616                       # Number of cycles rename is idle (Cycle)
board.processor.cores7.core.rename.blockCycles    231952840                       # Number of cycles rename is blocking (Cycle)
board.processor.cores7.core.rename.serializeStallCycles     57782406                       # count of cycles rename stalled for serializing inst (Cycle)
board.processor.cores7.core.rename.runCycles    184971957                       # Number of cycles rename is running (Cycle)
board.processor.cores7.core.rename.unblockCycles    195692138                       # Number of cycles rename is unblocking (Cycle)
board.processor.cores7.core.rename.renamedInsts   1302049691                       # Number of instructions processed by rename (Count)
board.processor.cores7.core.rename.ROBFullEvents      7251349                       # Number of times rename has blocked due to ROB full (Count)
board.processor.cores7.core.rename.IQFullEvents     19610365                       # Number of times rename has blocked due to IQ full (Count)
board.processor.cores7.core.rename.LQFullEvents     12254171                       # Number of times rename has blocked due to LQ full (Count)
board.processor.cores7.core.rename.SQFullEvents    157980067                       # Number of times rename has blocked due to SQ full (Count)
board.processor.cores7.core.rename.fullRegistersEvents          424                       # Number of times there has been no free registers (Count)
board.processor.cores7.core.rename.renamedOperands   2046678955                       # Number of destination operands rename has renamed (Count)
board.processor.cores7.core.rename.lookups   4217621418                       # Number of register rename lookups that rename has made (Count)
board.processor.cores7.core.rename.intLookups   1608668714                       # Number of integer rename lookups (Count)
board.processor.cores7.core.rename.fpLookups     28350289                       # Number of floating rename lookups (Count)
board.processor.cores7.core.rename.committedMaps   1531205168                       # Number of HB maps that are committed (Count)
board.processor.cores7.core.rename.undoneMaps    515473732                       # Number of HB maps that are undone due to squashing (Count)
board.processor.cores7.core.rename.serializing      2283801                       # count of serializing insts renamed (Count)
board.processor.cores7.core.rename.tempSerializing      1600916                       # count of temporary serializing insts renamed (Count)
board.processor.cores7.core.rename.skidInsts    121937323                       # count of insts added to the skid buffer (Count)
board.processor.cores7.core.rob.reads      1976380288                       # The number of ROB reads (Count)
board.processor.cores7.core.rob.writes     2539385758                       # The number of ROB writes (Count)
board.processor.cores7.core.thread_0.numInsts    456188320                       # Number of Instructions committed (Count)
board.processor.cores7.core.thread_0.numOps    963170671                       # Number of Ops committed (Count)
board.processor.cores7.core.thread_0.numMemRefs            0                       # Number of Memory References (Count)
board.workload.inst.arm                             0                       # number of arm instructions executed (Count)
board.workload.inst.quiesce                         0                       # number of quiesce instructions executed (Count)

---------- End Simulation Statistics   ----------
