
---------- Begin Simulation Statistics ----------
simSeconds                                  13.872824                       # Number of seconds simulated (Second)
simTicks                                 13872823527096                       # Number of ticks simulated (Tick)
finalTick                                13872823527096                       # Number of ticks from beginning of simulation (restored from checkpoints and never reset) (Tick)
simFreq                                  1000000000000                       # The number of ticks per simulated second ((Tick/Second))
hostSeconds                                 147897.80                       # Real time elapsed on the host (Second)
hostTickRate                                 93800069                       # The number of ticks simulated per host second (ticks/s) ((Tick/Second))
hostMemory                                   29591336                       # Number of bytes of host memory used (Byte)
simInsts                                   5960299408                       # Number of instructions simulated (Count)
simOps                                    13211350896                       # Number of ops (including micro ops) simulated (Count)
hostInstRate                                    40300                       # Simulator instruction rate (inst/s) ((Count/Second))
hostOpRate                                      89328                       # Simulator op (including micro ops) rate (op/s) ((Count/Second))
board.cache_hierarchy.ruby_system.delayHistogram::bucket_size          512                       # delay histogram for all message (Unspecified)
board.cache_hierarchy.ruby_system.delayHistogram::max_bucket         5119                       # delay histogram for all message (Unspecified)
board.cache_hierarchy.ruby_system.delayHistogram::samples    427518805                       # delay histogram for all message (Unspecified)
board.cache_hierarchy.ruby_system.delayHistogram::mean     0.639163                       # delay histogram for all message (Unspecified)
board.cache_hierarchy.ruby_system.delayHistogram::stdev     2.814124                       # delay histogram for all message (Unspecified)
board.cache_hierarchy.ruby_system.delayHistogram |   427517984    100.00%    100.00% |         667      0.00%    100.00% |         118      0.00%    100.00% |          28      0.00%    100.00% |           4      0.00%    100.00% |           4      0.00%    100.00% |           0      0.00%    100.00% |           0      0.00%    100.00% |           0      0.00%    100.00% |           0      0.00%    100.00% # delay histogram for all message (Unspecified)
board.cache_hierarchy.ruby_system.delayHistogram::total    427518805                       # delay histogram for all message (Unspecified)
board.cache_hierarchy.ruby_system.m_outstandReqHistSeqr::bucket_size            2                       (Unspecified)
board.cache_hierarchy.ruby_system.m_outstandReqHistSeqr::max_bucket           19                       (Unspecified)
board.cache_hierarchy.ruby_system.m_outstandReqHistSeqr::samples   3161894593                       (Unspecified)
board.cache_hierarchy.ruby_system.m_outstandReqHistSeqr::mean     1.746588                       (Unspecified)
board.cache_hierarchy.ruby_system.m_outstandReqHistSeqr::gmean     1.451765                       (Unspecified)
board.cache_hierarchy.ruby_system.m_outstandReqHistSeqr::stdev     1.514365                       (Unspecified)
board.cache_hierarchy.ruby_system.m_outstandReqHistSeqr |  1936478711     61.24%     61.24% |   999049342     31.60%     92.84% |   149831289      4.74%     97.58% |    35124096      1.11%     98.69% |    15243974      0.48%     99.17% |    10257828      0.32%     99.50% |     6388084      0.20%     99.70% |     4547159      0.14%     99.84% |     4974110      0.16%    100.00% |           0      0.00%    100.00% (Unspecified)
board.cache_hierarchy.ruby_system.m_outstandReqHistSeqr::total   3161894593                       (Unspecified)
board.cache_hierarchy.ruby_system.m_latencyHistSeqr::bucket_size          512                       (Unspecified)
board.cache_hierarchy.ruby_system.m_latencyHistSeqr::max_bucket         5119                       (Unspecified)
board.cache_hierarchy.ruby_system.m_latencyHistSeqr::samples   3174788932                       (Unspecified)
board.cache_hierarchy.ruby_system.m_latencyHistSeqr::mean     4.158211                       (Unspecified)
board.cache_hierarchy.ruby_system.m_latencyHistSeqr::gmean     1.120051                       (Unspecified)
board.cache_hierarchy.ruby_system.m_latencyHistSeqr::stdev    30.681704                       (Unspecified)
board.cache_hierarchy.ruby_system.m_latencyHistSeqr |  3172481346     99.93%     99.93% |     2141899      0.07%     99.99% |      152009      0.00%    100.00% |       12362      0.00%    100.00% |        1090      0.00%    100.00% |         212      0.00%    100.00% |          12      0.00%    100.00% |           2      0.00%    100.00% |           0      0.00%    100.00% |           0      0.00%    100.00% (Unspecified)
board.cache_hierarchy.ruby_system.m_latencyHistSeqr::total   3174788932                       (Unspecified)
board.cache_hierarchy.ruby_system.m_hitLatencyHistSeqr::bucket_size          256                       (Unspecified)
board.cache_hierarchy.ruby_system.m_hitLatencyHistSeqr::max_bucket         2559                       (Unspecified)
board.cache_hierarchy.ruby_system.m_hitLatencyHistSeqr::samples   3083803536                       (Unspecified)
board.cache_hierarchy.ruby_system.m_hitLatencyHistSeqr::mean     1.084406                       (Unspecified)
board.cache_hierarchy.ruby_system.m_hitLatencyHistSeqr::gmean     1.004823                       (Unspecified)
board.cache_hierarchy.ruby_system.m_hitLatencyHistSeqr::stdev     6.054198                       (Unspecified)
board.cache_hierarchy.ruby_system.m_hitLatencyHistSeqr |  3083512206     99.99%     99.99% |       63216      0.00%     99.99% |      216486      0.01%    100.00% |        6440      0.00%    100.00% |         644      0.00%    100.00% |        3535      0.00%    100.00% |         993      0.00%    100.00% |          10      0.00%    100.00% |           5      0.00%    100.00% |           1      0.00%    100.00% (Unspecified)
board.cache_hierarchy.ruby_system.m_hitLatencyHistSeqr::total   3083803536                       (Unspecified)
board.cache_hierarchy.ruby_system.m_missLatencyHistSeqr::bucket_size          512                       (Unspecified)
board.cache_hierarchy.ruby_system.m_missLatencyHistSeqr::max_bucket         5119                       (Unspecified)
board.cache_hierarchy.ruby_system.m_missLatencyHistSeqr::samples     90985396                       (Unspecified)
board.cache_hierarchy.ruby_system.m_missLatencyHistSeqr::mean   108.339900                       (Unspecified)
board.cache_hierarchy.ruby_system.m_missLatencyHistSeqr::gmean    44.386944                       (Unspecified)
board.cache_hierarchy.ruby_system.m_missLatencyHistSeqr::stdev   142.937476                       (Unspecified)
board.cache_hierarchy.ruby_system.m_missLatencyHistSeqr |    88905924     97.71%     97.71% |     1918973      2.11%     99.82% |      147830      0.16%     99.99% |       11359      0.01%    100.00% |        1084      0.00%    100.00% |         212      0.00%    100.00% |          12      0.00%    100.00% |           2      0.00%    100.00% |           0      0.00%    100.00% |           0      0.00%    100.00% (Unspecified)
board.cache_hierarchy.ruby_system.m_missLatencyHistSeqr::total     90985396                       (Unspecified)
board.cache_hierarchy.ruby_system.delayVCHist.vnet_0::bucket_size          512                       # delay histogram for vnet_0 (Unspecified)
board.cache_hierarchy.ruby_system.delayVCHist.vnet_0::max_bucket         5119                       # delay histogram for vnet_0 (Unspecified)
board.cache_hierarchy.ruby_system.delayVCHist.vnet_0::samples    172049048                       # delay histogram for vnet_0 (Unspecified)
board.cache_hierarchy.ruby_system.delayVCHist.vnet_0::mean     1.135662                       # delay histogram for vnet_0 (Unspecified)
board.cache_hierarchy.ruby_system.delayVCHist.vnet_0::stdev     3.936946                       # delay histogram for vnet_0 (Unspecified)
board.cache_hierarchy.ruby_system.delayVCHist.vnet_0 |   172048227    100.00%    100.00% |         667      0.00%    100.00% |         118      0.00%    100.00% |          28      0.00%    100.00% |           4      0.00%    100.00% |           4      0.00%    100.00% |           0      0.00%    100.00% |           0      0.00%    100.00% |           0      0.00%    100.00% |           0      0.00%    100.00% # delay histogram for vnet_0 (Unspecified)
board.cache_hierarchy.ruby_system.delayVCHist.vnet_0::total    172049048                       # delay histogram for vnet_0 (Unspecified)
board.cache_hierarchy.ruby_system.delayVCHist.vnet_1::bucket_size           64                       # delay histogram for vnet_1 (Unspecified)
board.cache_hierarchy.ruby_system.delayVCHist.vnet_1::max_bucket          639                       # delay histogram for vnet_1 (Unspecified)
board.cache_hierarchy.ruby_system.delayVCHist.vnet_1::samples    229945058                       # delay histogram for vnet_1 (Unspecified)
board.cache_hierarchy.ruby_system.delayVCHist.vnet_1::mean     0.338559                       # delay histogram for vnet_1 (Unspecified)
board.cache_hierarchy.ruby_system.delayVCHist.vnet_1::stdev     1.675257                       # delay histogram for vnet_1 (Unspecified)
board.cache_hierarchy.ruby_system.delayVCHist.vnet_1 |   229941480    100.00%    100.00% |        3070      0.00%    100.00% |         123      0.00%    100.00% |         129      0.00%    100.00% |         103      0.00%    100.00% |         124      0.00%    100.00% |          29      0.00%    100.00% |           0      0.00%    100.00% |           0      0.00%    100.00% |           0      0.00%    100.00% # delay histogram for vnet_1 (Unspecified)
board.cache_hierarchy.ruby_system.delayVCHist.vnet_1::total    229945058                       # delay histogram for vnet_1 (Unspecified)
board.cache_hierarchy.ruby_system.delayVCHist.vnet_2::bucket_size            1                       # delay histogram for vnet_2 (Unspecified)
board.cache_hierarchy.ruby_system.delayVCHist.vnet_2::max_bucket            9                       # delay histogram for vnet_2 (Unspecified)
board.cache_hierarchy.ruby_system.delayVCHist.vnet_2::samples     25524699                       # delay histogram for vnet_2 (Unspecified)
board.cache_hierarchy.ruby_system.delayVCHist.vnet_2::mean     0.000576                       # delay histogram for vnet_2 (Unspecified)
board.cache_hierarchy.ruby_system.delayVCHist.vnet_2::stdev     0.034012                       # delay histogram for vnet_2 (Unspecified)
board.cache_hierarchy.ruby_system.delayVCHist.vnet_2 |    25517357     99.97%     99.97% |           0      0.00%     99.97% |        7328      0.03%    100.00% |           0      0.00%    100.00% |          14      0.00%    100.00% |           0      0.00%    100.00% |           0      0.00%    100.00% |           0      0.00%    100.00% |           0      0.00%    100.00% |           0      0.00%    100.00% # delay histogram for vnet_2 (Unspecified)
board.cache_hierarchy.ruby_system.delayVCHist.vnet_2::total     25524699                       # delay histogram for vnet_2 (Unspecified)
board.cache_hierarchy.ruby_system.Directory_Controller.Fetch     38667471      0.00%      0.00% (Unspecified)
board.cache_hierarchy.ruby_system.Directory_Controller.Data     13836070      0.00%      0.00% (Unspecified)
board.cache_hierarchy.ruby_system.Directory_Controller.Memory_Data     38726309      0.00%      0.00% (Unspecified)
board.cache_hierarchy.ruby_system.Directory_Controller.Memory_Ack     15133506      0.00%      0.00% (Unspecified)
board.cache_hierarchy.ruby_system.Directory_Controller.DMA_READ        75821      0.00%      0.00% (Unspecified)
board.cache_hierarchy.ruby_system.Directory_Controller.DMA_WRITE      1306016      0.00%      0.00% (Unspecified)
board.cache_hierarchy.ruby_system.Directory_Controller.CleanReplacement     24823209      0.00%      0.00% (Unspecified)
board.cache_hierarchy.ruby_system.Directory_Controller.I.Fetch     38667471      0.00%      0.00% (Unspecified)
board.cache_hierarchy.ruby_system.Directory_Controller.I.DMA_READ        58838      0.00%      0.00% (Unspecified)
board.cache_hierarchy.ruby_system.Directory_Controller.I.DMA_WRITE      1297436      0.00%      0.00% (Unspecified)
board.cache_hierarchy.ruby_system.Directory_Controller.ID.Memory_Data        58838      0.00%      0.00% (Unspecified)
board.cache_hierarchy.ruby_system.Directory_Controller.ID_W.Memory_Ack      1297436      0.00%      0.00% (Unspecified)
board.cache_hierarchy.ruby_system.Directory_Controller.M.Data     13810507      0.00%      0.00% (Unspecified)
board.cache_hierarchy.ruby_system.Directory_Controller.M.DMA_READ        16983      0.00%      0.00% (Unspecified)
board.cache_hierarchy.ruby_system.Directory_Controller.M.DMA_WRITE         8580      0.00%      0.00% (Unspecified)
board.cache_hierarchy.ruby_system.Directory_Controller.M.CleanReplacement     24823209      0.00%      0.00% (Unspecified)
board.cache_hierarchy.ruby_system.Directory_Controller.IM.Memory_Data     38667471      0.00%      0.00% (Unspecified)
board.cache_hierarchy.ruby_system.Directory_Controller.MI.Memory_Ack     13810507      0.00%      0.00% (Unspecified)
board.cache_hierarchy.ruby_system.Directory_Controller.M_DRD.Data        16983      0.00%      0.00% (Unspecified)
board.cache_hierarchy.ruby_system.Directory_Controller.M_DRDI.Memory_Ack        16983      0.00%      0.00% (Unspecified)
board.cache_hierarchy.ruby_system.Directory_Controller.M_DWR.Data         8580      0.00%      0.00% (Unspecified)
board.cache_hierarchy.ruby_system.Directory_Controller.M_DWRI.Memory_Ack         8580      0.00%      0.00% (Unspecified)
board.cache_hierarchy.ruby_system.DMA_Controller.ReadRequest |       75821    100.00%    100.00% |           0      0.00%    100.00% (Unspecified)
board.cache_hierarchy.ruby_system.DMA_Controller.ReadRequest::total        75821                       (Unspecified)
board.cache_hierarchy.ruby_system.DMA_Controller.WriteRequest |     1306016    100.00%    100.00% |           0      0.00%    100.00% (Unspecified)
board.cache_hierarchy.ruby_system.DMA_Controller.WriteRequest::total      1306016                       (Unspecified)
board.cache_hierarchy.ruby_system.DMA_Controller.Data |       75821    100.00%    100.00% |           0      0.00%    100.00% (Unspecified)
board.cache_hierarchy.ruby_system.DMA_Controller.Data::total        75821                       (Unspecified)
board.cache_hierarchy.ruby_system.DMA_Controller.Ack |     1306016    100.00%    100.00% |           0      0.00%    100.00% (Unspecified)
board.cache_hierarchy.ruby_system.DMA_Controller.Ack::total      1306016                       (Unspecified)
board.cache_hierarchy.ruby_system.DMA_Controller.READY.ReadRequest |       75821    100.00%    100.00% |           0      0.00%    100.00% (Unspecified)
board.cache_hierarchy.ruby_system.DMA_Controller.READY.ReadRequest::total        75821                       (Unspecified)
board.cache_hierarchy.ruby_system.DMA_Controller.READY.WriteRequest |     1306016    100.00%    100.00% |           0      0.00%    100.00% (Unspecified)
board.cache_hierarchy.ruby_system.DMA_Controller.READY.WriteRequest::total      1306016                       (Unspecified)
board.cache_hierarchy.ruby_system.DMA_Controller.BUSY_RD.Data |       75821    100.00%    100.00% |           0      0.00%    100.00% (Unspecified)
board.cache_hierarchy.ruby_system.DMA_Controller.BUSY_RD.Data::total        75821                       (Unspecified)
board.cache_hierarchy.ruby_system.DMA_Controller.BUSY_WR.Ack |     1306016    100.00%    100.00% |           0      0.00%    100.00% (Unspecified)
board.cache_hierarchy.ruby_system.DMA_Controller.BUSY_WR.Ack::total      1306016                       (Unspecified)
board.cache_hierarchy.ruby_system.L1Cache_Controller.Load |   634232254     42.80%     42.80% |    92136530      6.22%     49.01% |    47681603      3.22%     52.23% |    42207298      2.85%     55.08% |   457235252     30.85%     85.93% |    61181212      4.13%     90.06% |   108444006      7.32%     97.38% |    38883843      2.62%    100.00% (Unspecified)
board.cache_hierarchy.ruby_system.L1Cache_Controller.Load::total   1482001998                       (Unspecified)
board.cache_hierarchy.ruby_system.L1Cache_Controller.Ifetch |   351464013     36.57%     36.57% |    66950533      6.97%     43.53% |    41953219      4.36%     47.90% |    34905353      3.63%     51.53% |   297901082     30.99%     82.52% |    53110483      5.53%     88.05% |    82067605      8.54%     96.59% |    32788204      3.41%    100.00% (Unspecified)
board.cache_hierarchy.ruby_system.L1Cache_Controller.Ifetch::total    961140492                       (Unspecified)
board.cache_hierarchy.ruby_system.L1Cache_Controller.Store |   193097490     26.39%     26.39% |    58267627      7.96%     34.36% |    34734989      4.75%     39.10% |    37166046      5.08%     44.18% |   246826500     33.74%     77.92% |    50917450      6.96%     84.88% |    83422752     11.40%     96.28% |    27219223      3.72%    100.00% (Unspecified)
board.cache_hierarchy.ruby_system.L1Cache_Controller.Store::total    731652077                       (Unspecified)
board.cache_hierarchy.ruby_system.L1Cache_Controller.Inv |     3373830     14.04%     14.04% |     3151925     13.11%     27.15% |     2298680      9.56%     36.71% |     2301075      9.57%     46.29% |     5921157     24.63%     70.92% |     2540644     10.57%     81.49% |     2465514     10.26%     91.75% |     1982884      8.25%    100.00% (Unspecified)
board.cache_hierarchy.ruby_system.L1Cache_Controller.Inv::total     24035709                       (Unspecified)
board.cache_hierarchy.ruby_system.L1Cache_Controller.L1_Replacement |    17023238     20.71%     20.71% |     6435427      7.83%     28.54% |     3146035      3.83%     32.37% |     3286129      4.00%     36.37% |    38695534     47.09%     83.46% |     3769019      4.59%     88.04% |     7278898      8.86%     96.90% |     2547572      3.10%    100.00% (Unspecified)
board.cache_hierarchy.ruby_system.L1Cache_Controller.L1_Replacement::total     82181852                       (Unspecified)
board.cache_hierarchy.ruby_system.L1Cache_Controller.Fwd_GETX |       66793     20.81%     20.81% |       35191     10.96%     31.77% |       30781      9.59%     41.36% |       38953     12.13%     53.49% |       50828     15.83%     69.32% |       23972      7.47%     76.79% |       48564     15.13%     91.92% |       25940      8.08%    100.00% (Unspecified)
board.cache_hierarchy.ruby_system.L1Cache_Controller.Fwd_GETX::total       321022                       (Unspecified)
board.cache_hierarchy.ruby_system.L1Cache_Controller.Fwd_GETS |      249561     21.37%     21.37% |      139348     11.93%     33.30% |      124086     10.62%     43.92% |      129976     11.13%     55.05% |      158316     13.56%     68.61% |      116339      9.96%     78.57% |      139667     11.96%     90.53% |      110614      9.47%    100.00% (Unspecified)
board.cache_hierarchy.ruby_system.L1Cache_Controller.Fwd_GETS::total      1167907                       (Unspecified)
board.cache_hierarchy.ruby_system.L1Cache_Controller.Fwd_GET_INSTR |           6      9.84%      9.84% |           6      9.84%     19.67% |           5      8.20%     27.87% |          15     24.59%     52.46% |          11     18.03%     70.49% |           9     14.75%     85.25% |           4      6.56%     91.80% |           5      8.20%    100.00% (Unspecified)
board.cache_hierarchy.ruby_system.L1Cache_Controller.Fwd_GET_INSTR::total           61                       (Unspecified)
board.cache_hierarchy.ruby_system.L1Cache_Controller.Data |        5697     26.67%     26.67% |        1850      8.66%     35.33% |        2609     12.21%     47.55% |        2390     11.19%     58.74% |        2780     13.01%     71.75% |        1796      8.41%     80.16% |        2028      9.49%     89.65% |        2210     10.35%    100.00% (Unspecified)
board.cache_hierarchy.ruby_system.L1Cache_Controller.Data::total        21360                       (Unspecified)
board.cache_hierarchy.ruby_system.L1Cache_Controller.Data_Exclusive |     8243801     26.72%     26.72% |     2596334      8.41%     35.13% |     1117670      3.62%     38.75% |     1120076      3.63%     42.38% |    12678455     41.09%     83.47% |     1363137      4.42%     87.89% |     2804959      9.09%     96.98% |      932980      3.02%    100.00% (Unspecified)
board.cache_hierarchy.ruby_system.L1Cache_Controller.Data_Exclusive::total     30857412                       (Unspecified)
board.cache_hierarchy.ruby_system.L1Cache_Controller.DataS_fromL1 |      177148     15.17%     15.17% |      191030     16.36%     31.52% |      140293     12.01%     43.53% |      137694     11.79%     55.32% |      147860     12.66%     67.98% |      155604     13.32%     81.31% |      117665     10.07%     91.38% |      100674      8.62%    100.00% (Unspecified)
board.cache_hierarchy.ruby_system.L1Cache_Controller.DataS_fromL1::total      1167968                       (Unspecified)
board.cache_hierarchy.ruby_system.L1Cache_Controller.Data_all_Acks |     9689130     16.62%     16.62% |     4855466      8.33%     24.95% |     2788427      4.78%     29.73% |     2961601      5.08%     34.81% |    27028103     46.36%     81.17% |     3307799      5.67%     86.85% |     5284302      9.06%     95.91% |     2382761      4.09%    100.00% (Unspecified)
board.cache_hierarchy.ruby_system.L1Cache_Controller.Data_all_Acks::total     58297589                       (Unspecified)
board.cache_hierarchy.ruby_system.L1Cache_Controller.Ack |      510487     44.56%     44.56% |      103505      9.04%     53.60% |       92708      8.09%     61.69% |       88696      7.74%     69.44% |      115008     10.04%     79.48% |       70749      6.18%     85.65% |       85258      7.44%     93.09% |       79100      6.91%    100.00% (Unspecified)
board.cache_hierarchy.ruby_system.L1Cache_Controller.Ack::total      1145511                       (Unspecified)
board.cache_hierarchy.ruby_system.L1Cache_Controller.Ack_all |      177743     26.83%     26.83% |       79890     12.06%     38.89% |       71412     10.78%     49.67% |       66062      9.97%     59.65% |       95346     14.39%     74.04% |       51963      7.84%     81.88% |       64394      9.72%     91.60% |       55617      8.40%    100.00% (Unspecified)
board.cache_hierarchy.ruby_system.L1Cache_Controller.Ack_all::total       662427                       (Unspecified)
board.cache_hierarchy.ruby_system.L1Cache_Controller.WB_Ack |    11232239     30.85%     30.85% |     2741004      7.53%     38.38% |      940963      2.58%     40.97% |     1146699      3.15%     44.12% |    15114367     41.52%     85.64% |     1217607      3.34%     88.98% |     3281959      9.02%     98.00% |      728834      2.00%    100.00% (Unspecified)
board.cache_hierarchy.ruby_system.L1Cache_Controller.WB_Ack::total     36403672                       (Unspecified)
board.cache_hierarchy.ruby_system.L1Cache_Controller.NP.Load |     8291190     27.14%     27.14% |     2530217      8.28%     35.42% |     1102916      3.61%     39.03% |     1100364      3.60%     42.63% |    12579620     41.17%     83.80% |     1241843      4.06%     87.87% |     2823746      9.24%     97.11% |      883189      2.89%    100.00% (Unspecified)
board.cache_hierarchy.ruby_system.L1Cache_Controller.NP.Load::total     30553085                       (Unspecified)
board.cache_hierarchy.ruby_system.L1Cache_Controller.NP.Ifetch |     4960249     12.25%     12.25% |     3035935      7.50%     19.75% |     1610957      3.98%     23.73% |     1532269      3.78%     27.51% |    22763558     56.22%     83.73% |     1940094      4.79%     88.52% |     3333370      8.23%     96.75% |     1314035      3.25%    100.00% (Unspecified)
board.cache_hierarchy.ruby_system.L1Cache_Controller.NP.Ifetch::total     40490467                       (Unspecified)
board.cache_hierarchy.ruby_system.L1Cache_Controller.NP.Store |     3773569     33.83%     33.83% |      871160      7.81%     41.64% |      434099      3.89%     45.54% |      655419      5.88%     51.41% |     3354033     30.07%     81.49% |      588999      5.28%     86.77% |     1123686     10.07%     96.84% |      352317      3.16%    100.00% (Unspecified)
board.cache_hierarchy.ruby_system.L1Cache_Controller.NP.Store::total     11153282                       (Unspecified)
board.cache_hierarchy.ruby_system.L1Cache_Controller.NP.Inv |     1405452     14.32%     14.32% |     1137898     11.59%     25.92% |      696352      7.10%     33.01% |      652838      6.65%     39.66% |     3823764     38.96%     78.63% |      727840      7.42%     86.04% |      855008      8.71%     94.76% |      514733      5.24%    100.00% (Unspecified)
board.cache_hierarchy.ruby_system.L1Cache_Controller.NP.Inv::total      9813885                       (Unspecified)
board.cache_hierarchy.ruby_system.L1Cache_Controller.I.Load |      410677     11.79%     11.79% |      501049     14.38%     26.17% |      392164     11.26%     37.43% |      409081     11.74%     49.17% |      549357     15.77%     64.94% |      460067     13.21%     78.15% |      391755     11.25%     89.39% |      369605     10.61%    100.00% (Unspecified)
board.cache_hierarchy.ruby_system.L1Cache_Controller.I.Load::total      3483755                       (Unspecified)
board.cache_hierarchy.ruby_system.L1Cache_Controller.I.Ifetch |      550236     14.39%     14.39% |      575175     15.04%     29.43% |      412529     10.79%     40.22% |      428546     11.21%     51.43% |      505118     13.21%     64.64% |      495351     12.96%     77.60% |      444812     11.63%     89.23% |      411724     10.77%    100.00% (Unspecified)
board.cache_hierarchy.ruby_system.L1Cache_Controller.I.Ifetch::total      3823491                       (Unspecified)
board.cache_hierarchy.ruby_system.L1Cache_Controller.I.Store |      129388     15.57%     15.57% |      130455     15.70%     31.27% |       95196     11.46%     42.72% |       94719     11.40%     54.12% |      104328     12.55%     66.68% |      101010     12.16%     78.83% |       89867     10.81%     89.65% |       86045     10.35%    100.00% (Unspecified)
board.cache_hierarchy.ruby_system.L1Cache_Controller.I.Store::total       831008                       (Unspecified)
board.cache_hierarchy.ruby_system.L1Cache_Controller.I.Inv |           0      0.00%      0.00% |           0      0.00%      0.00% |           1     16.67%     16.67% |           1     16.67%     33.33% |           3     50.00%     83.33% |           1     16.67%    100.00% |           0      0.00%    100.00% |           0      0.00%    100.00% (Unspecified)
board.cache_hierarchy.ruby_system.L1Cache_Controller.I.Inv::total            6                       (Unspecified)
board.cache_hierarchy.ruby_system.L1Cache_Controller.I.L1_Replacement |      942408     14.77%     14.77% |      840062     13.16%     27.93% |      730129     11.44%     39.37% |      751835     11.78%     51.15% |      988144     15.48%     66.63% |      777450     12.18%     78.81% |      729118     11.42%     90.24% |      623133      9.76%    100.00% (Unspecified)
board.cache_hierarchy.ruby_system.L1Cache_Controller.I.L1_Replacement::total      6382279                       (Unspecified)
board.cache_hierarchy.ruby_system.L1Cache_Controller.S.Load |    38125972     41.19%     41.19% |     7435024      8.03%     49.23% |     7837074      8.47%     57.69% |     7919714      8.56%     66.25% |     7947944      8.59%     74.84% |     7753223      8.38%     83.22% |     8485684      9.17%     92.38% |     7049449      7.62%    100.00% (Unspecified)
board.cache_hierarchy.ruby_system.L1Cache_Controller.S.Load::total     92554084                       (Unspecified)
board.cache_hierarchy.ruby_system.L1Cache_Controller.S.Ifetch |   345953345     37.73%     37.73% |    63339354      6.91%     44.64% |    39929716      4.36%     49.00% |    32944498      3.59%     52.59% |   274632315     29.95%     82.55% |    50674977      5.53%     88.07% |    78289312      8.54%     96.61% |    31062393      3.39%    100.00% (Unspecified)
board.cache_hierarchy.ruby_system.L1Cache_Controller.S.Ifetch::total    916825910                       (Unspecified)
board.cache_hierarchy.ruby_system.L1Cache_Controller.S.Store |      172513     26.53%     26.53% |       78729     12.11%     38.63% |       69941     10.76%     49.39% |       65035     10.00%     59.39% |       93751     14.42%     73.81% |       51139      7.86%     81.67% |       64084      9.85%     91.52% |       55117      8.48%    100.00% (Unspecified)
board.cache_hierarchy.ruby_system.L1Cache_Controller.S.Store::total       650309                       (Unspecified)
board.cache_hierarchy.ruby_system.L1Cache_Controller.S.Inv |     1197084     13.90%     13.90% |     1252102     14.54%     28.44% |      979954     11.38%     39.81% |     1027157     11.93%     51.74% |     1189911     13.82%     65.55% |     1065359     12.37%     77.92% |      996314     11.57%     89.49% |      905231     10.51%    100.00% (Unspecified)
board.cache_hierarchy.ruby_system.L1Cache_Controller.S.Inv::total      8613112                       (Unspecified)
board.cache_hierarchy.ruby_system.L1Cache_Controller.S.L1_Replacement |     4848313     12.31%     12.31% |     2854198      7.25%     19.55% |     1474832      3.74%     23.30% |     1387470      3.52%     26.82% |    22592652     57.35%     84.17% |     1773831      4.50%     88.67% |     3267677      8.29%     96.97% |     1195526      3.03%    100.00% (Unspecified)
board.cache_hierarchy.ruby_system.L1Cache_Controller.S.L1_Replacement::total     39394499                       (Unspecified)
board.cache_hierarchy.ruby_system.L1Cache_Controller.E.Load |   156623379     31.62%     31.62% |    36512652      7.37%     38.99% |    14723686      2.97%     41.96% |    13546168      2.73%     44.70% |   196801534     39.73%     84.43% |    21041602      4.25%     88.67% |    43241633      8.73%     97.40% |    12864476      2.60%    100.00% (Unspecified)
board.cache_hierarchy.ruby_system.L1Cache_Controller.E.Load::total    495355130                       (Unspecified)
board.cache_hierarchy.ruby_system.L1Cache_Controller.E.Store |     2190452     34.64%     34.64% |      640537     10.13%     44.77% |      263821      4.17%     48.94% |      238991      3.78%     52.72% |     1797041     28.42%     81.13% |      265719      4.20%     85.33% |      709022     11.21%     96.55% |      218410      3.45%    100.00% (Unspecified)
board.cache_hierarchy.ruby_system.L1Cache_Controller.E.Store::total      6323993                       (Unspecified)
board.cache_hierarchy.ruby_system.L1Cache_Controller.E.Inv |      373742     13.35%     13.35% |      371627     13.27%     26.62% |      308397     11.01%     37.63% |      306374     10.94%     48.58% |      473567     16.91%     65.49% |      403734     14.42%     79.91% |      297078     10.61%     90.52% |      265539      9.48%    100.00% (Unspecified)
board.cache_hierarchy.ruby_system.L1Cache_Controller.E.Inv::total      2800058                       (Unspecified)
board.cache_hierarchy.ruby_system.L1Cache_Controller.E.L1_Replacement |     5608448     26.43%     26.43% |     1527658      7.20%     33.63% |      484474      2.28%     35.91% |      508341      2.40%     38.31% |    10341452     48.73%     87.04% |      627559      2.96%     90.00% |     1730815      8.16%     98.15% |      391863      1.85%    100.00% (Unspecified)
board.cache_hierarchy.ruby_system.L1Cache_Controller.E.L1_Replacement::total     21220610                       (Unspecified)
board.cache_hierarchy.ruby_system.L1Cache_Controller.E.Fwd_GETX |        1916     15.75%     15.75% |         981      8.06%     23.81% |        1642     13.49%     37.30% |        1512     12.43%     49.73% |        2317     19.04%     68.77% |        1218     10.01%     78.78% |        1465     12.04%     90.82% |        1117      9.18%    100.00% (Unspecified)
board.cache_hierarchy.ruby_system.L1Cache_Controller.E.Fwd_GETX::total        12168                       (Unspecified)
board.cache_hierarchy.ruby_system.L1Cache_Controller.E.Fwd_GETS |       69237     13.84%     13.84% |       55507     11.10%     24.94% |       59330     11.86%     36.80% |       64825     12.96%     49.77% |       63756     12.75%     62.51% |       64898     12.98%     75.49% |       66545     13.31%     88.79% |       56042     11.21%    100.00% (Unspecified)
board.cache_hierarchy.ruby_system.L1Cache_Controller.E.Fwd_GETS::total       500140                       (Unspecified)
board.cache_hierarchy.ruby_system.L1Cache_Controller.E.Fwd_GET_INSTR |           6     10.00%     10.00% |           6     10.00%     20.00% |           5      8.33%     28.33% |          15     25.00%     53.33% |          11     18.33%     71.67% |           9     15.00%     86.67% |           4      6.67%     93.33% |           4      6.67%    100.00% (Unspecified)
board.cache_hierarchy.ruby_system.L1Cache_Controller.E.Fwd_GET_INSTR::total           60                       (Unspecified)
board.cache_hierarchy.ruby_system.L1Cache_Controller.M.Load |   430780338     50.09%     50.09% |    45157118      5.25%     55.34% |    23625679      2.75%     58.09% |    19231842      2.24%     60.32% |   239354566     27.83%     88.15% |    30684252      3.57%     91.72% |    53500692      6.22%     97.94% |    17716981      2.06%    100.00% (Unspecified)
board.cache_hierarchy.ruby_system.L1Cache_Controller.M.Load::total    860051468                       (Unspecified)
board.cache_hierarchy.ruby_system.L1Cache_Controller.M.Store |   186831495     26.21%     26.21% |    56546633      7.93%     34.15% |    33871910      4.75%     38.90% |    36111857      5.07%     43.97% |   241477160     33.88%     77.85% |    49910573      7.00%     84.85% |    81436001     11.43%     96.28% |    26507322      3.72%    100.00% (Unspecified)
board.cache_hierarchy.ruby_system.L1Cache_Controller.M.Store::total    712692951                       (Unspecified)
board.cache_hierarchy.ruby_system.L1Cache_Controller.M.Inv |      396932     14.19%     14.19% |      389459     13.92%     28.10% |      312676     11.17%     39.28% |      313146     11.19%     50.47% |      432492     15.46%     65.93% |      342622     12.24%     78.17% |      315268     11.27%     89.44% |      295518     10.56%    100.00% (Unspecified)
board.cache_hierarchy.ruby_system.L1Cache_Controller.M.Inv::total      2798113                       (Unspecified)
board.cache_hierarchy.ruby_system.L1Cache_Controller.M.L1_Replacement |     5623791     37.04%     37.04% |     1213346      7.99%     45.03% |      456489      3.01%     48.04% |      638358      4.20%     52.24% |     4772915     31.44%     83.68% |      590048      3.89%     87.56% |     1551144     10.22%     97.78% |      336971      2.22%    100.00% (Unspecified)
board.cache_hierarchy.ruby_system.L1Cache_Controller.M.L1_Replacement::total     15183062                       (Unspecified)
board.cache_hierarchy.ruby_system.L1Cache_Controller.M.Fwd_GETX |       64877     21.01%     21.01% |       34210     11.08%     32.08% |       29139      9.43%     41.52% |       37441     12.12%     53.64% |       48510     15.71%     69.35% |       22753      7.37%     76.71% |       47098     15.25%     91.96% |       24822      8.04%    100.00% (Unspecified)
board.cache_hierarchy.ruby_system.L1Cache_Controller.M.Fwd_GETX::total       308850                       (Unspecified)
board.cache_hierarchy.ruby_system.L1Cache_Controller.M.Fwd_GETS |      180322     27.00%     27.00% |       83841     12.56%     39.56% |       64752      9.70%     49.26% |       65147      9.76%     59.01% |       94559     14.16%     73.17% |       51440      7.70%     80.88% |       73121     10.95%     91.83% |       54569      8.17%    100.00% (Unspecified)
board.cache_hierarchy.ruby_system.L1Cache_Controller.M.Fwd_GETS::total       667751                       (Unspecified)
board.cache_hierarchy.ruby_system.L1Cache_Controller.IS.Inv |         121     12.70%     12.70% |         121     12.70%     25.39% |         122     12.80%     38.20% |         149     15.63%     53.83% |         164     17.21%     71.04% |          86      9.02%     80.06% |          87      9.13%     89.19% |         103     10.81%    100.00% (Unspecified)
board.cache_hierarchy.ruby_system.L1Cache_Controller.IS.Inv::total          953                       (Unspecified)
board.cache_hierarchy.ruby_system.L1Cache_Controller.IS.L1_Replacement |         262     20.68%     20.68% |         138     10.89%     31.57% |          95      7.50%     39.07% |         109      8.60%     47.67% |         354     27.94%     75.61% |         124      9.79%     85.40% |         119      9.39%     94.79% |          66      5.21%    100.00% (Unspecified)
board.cache_hierarchy.ruby_system.L1Cache_Controller.IS.L1_Replacement::total         1267                       (Unspecified)
board.cache_hierarchy.ruby_system.L1Cache_Controller.IS.Data_Exclusive |     8243798     26.72%     26.72% |     2596332      8.41%     35.13% |     1117667      3.62%     38.75% |     1120075      3.63%     42.38% |    12678453     41.09%     83.47% |     1363132      4.42%     87.89% |     2804957      9.09%     96.98% |      932979      3.02%    100.00% (Unspecified)
board.cache_hierarchy.ruby_system.L1Cache_Controller.IS.Data_Exclusive::total     30857393                       (Unspecified)
board.cache_hierarchy.ruby_system.L1Cache_Controller.IS.DataS_fromL1 |      177147     15.17%     15.17% |      191030     16.36%     31.52% |      140292     12.01%     43.53% |      137693     11.79%     55.32% |      147860     12.66%     67.98% |      155604     13.32%     81.31% |      117665     10.07%     91.38% |      100673      8.62%    100.00% (Unspecified)
board.cache_hierarchy.ruby_system.L1Cache_Controller.IS.DataS_fromL1::total      1167964                       (Unspecified)
board.cache_hierarchy.ruby_system.L1Cache_Controller.IS.Data_all_Acks |     5791286     12.50%     12.50% |     3854893      8.32%     20.82% |     2260485      4.88%     25.70% |     2212343      4.78%     30.48% |    23571175     50.88%     81.36% |     2618533      5.65%     87.01% |     4070974      8.79%     95.80% |     1944798      4.20%    100.00% (Unspecified)
board.cache_hierarchy.ruby_system.L1Cache_Controller.IS.Data_all_Acks::total     46324487                       (Unspecified)
board.cache_hierarchy.ruby_system.L1Cache_Controller.IM.Inv |           0      0.00%      0.00% |           0      0.00%      0.00% |           1     12.50%     12.50% |           2     25.00%     37.50% |           0      0.00%     37.50% |           0      0.00%     37.50% |           0      0.00%     37.50% |           5     62.50%    100.00% (Unspecified)
board.cache_hierarchy.ruby_system.L1Cache_Controller.IM.Inv::total            8                       (Unspecified)
board.cache_hierarchy.ruby_system.L1Cache_Controller.IM.L1_Replacement |          16     11.85%     11.85% |          25     18.52%     30.37% |          16     11.85%     42.22% |          16     11.85%     54.07% |          17     12.59%     66.67% |           7      5.19%     71.85% |          25     18.52%     90.37% |          13      9.63%    100.00% (Unspecified)
board.cache_hierarchy.ruby_system.L1Cache_Controller.IM.L1_Replacement::total          135                       (Unspecified)
board.cache_hierarchy.ruby_system.L1Cache_Controller.IM.Data |        5697     26.67%     26.67% |        1850      8.66%     35.33% |        2609     12.21%     47.55% |        2390     11.19%     58.74% |        2780     13.01%     71.75% |        1796      8.41%     80.16% |        2028      9.49%     89.65% |        2210     10.35%    100.00% (Unspecified)
board.cache_hierarchy.ruby_system.L1Cache_Controller.IM.Data::total        21360                       (Unspecified)
board.cache_hierarchy.ruby_system.L1Cache_Controller.IM.Data_all_Acks |     3897727     32.56%     32.56% |     1000454      8.36%     40.91% |      527824      4.41%     45.32% |      749111      6.26%     51.58% |     3456766     28.87%     80.45% |      689185      5.76%     86.21% |     1213243     10.13%     96.34% |      437862      3.66%    100.00% (Unspecified)
board.cache_hierarchy.ruby_system.L1Cache_Controller.IM.Data_all_Acks::total     11972172                       (Unspecified)
board.cache_hierarchy.ruby_system.L1Cache_Controller.IM.Ack |           3     11.11%     11.11% |           0      0.00%     11.11% |           0      0.00%     11.11% |           4     14.81%     25.93% |           5     18.52%     44.44% |           4     14.81%     59.26% |           7     25.93%     85.19% |           4     14.81%    100.00% (Unspecified)
board.cache_hierarchy.ruby_system.L1Cache_Controller.IM.Ack::total           27                       (Unspecified)
board.cache_hierarchy.ruby_system.L1Cache_Controller.SM.Inv |         467      5.05%      5.05% |         689      7.46%     12.51% |        1138     12.31%     24.82% |        1363     14.75%     39.57% |        1185     12.82%     52.39% |         972     10.52%     62.91% |        1718     18.59%     81.50% |        1710     18.50%    100.00% (Unspecified)
board.cache_hierarchy.ruby_system.L1Cache_Controller.SM.Inv::total         9242                       (Unspecified)
board.cache_hierarchy.ruby_system.L1Cache_Controller.SM.Ack |      510484     44.56%     44.56% |      103505      9.04%     53.60% |       92708      8.09%     61.69% |       88692      7.74%     69.44% |      115003     10.04%     79.48% |       70745      6.18%     85.65% |       85251      7.44%     93.09% |       79096      6.91%    100.00% (Unspecified)
board.cache_hierarchy.ruby_system.L1Cache_Controller.SM.Ack::total      1145484                       (Unspecified)
board.cache_hierarchy.ruby_system.L1Cache_Controller.SM.Ack_all |      177743     26.83%     26.83% |       79890     12.06%     38.89% |       71412     10.78%     49.67% |       66062      9.97%     59.65% |       95346     14.39%     74.04% |       51963      7.84%     81.88% |       64394      9.72%     91.60% |       55617      8.40%    100.00% (Unspecified)
board.cache_hierarchy.ruby_system.L1Cache_Controller.SM.Ack_all::total       662427                       (Unspecified)
board.cache_hierarchy.ruby_system.L1Cache_Controller.IS_I.Data_Exclusive |           3     15.79%     15.79% |           2     10.53%     26.32% |           3     15.79%     42.11% |           1      5.26%     47.37% |           2     10.53%     57.89% |           5     26.32%     84.21% |           2     10.53%     94.74% |           1      5.26%    100.00% (Unspecified)
board.cache_hierarchy.ruby_system.L1Cache_Controller.IS_I.Data_Exclusive::total           19                       (Unspecified)
board.cache_hierarchy.ruby_system.L1Cache_Controller.IS_I.DataS_fromL1 |           1     25.00%     25.00% |           0      0.00%     25.00% |           1     25.00%     50.00% |           1     25.00%     75.00% |           0      0.00%     75.00% |           0      0.00%     75.00% |           0      0.00%     75.00% |           1     25.00%    100.00% (Unspecified)
board.cache_hierarchy.ruby_system.L1Cache_Controller.IS_I.DataS_fromL1::total            4                       (Unspecified)
board.cache_hierarchy.ruby_system.L1Cache_Controller.IS_I.Data_all_Acks |         117     12.58%     12.58% |         119     12.80%     25.38% |         118     12.69%     38.06% |         147     15.81%     53.87% |         162     17.42%     71.29% |          81      8.71%     80.00% |          85      9.14%     89.14% |         101     10.86%    100.00% (Unspecified)
board.cache_hierarchy.ruby_system.L1Cache_Controller.IS_I.Data_all_Acks::total          930                       (Unspecified)
board.cache_hierarchy.ruby_system.L1Cache_Controller.M_I.Load |         698     15.59%     15.59% |         470     10.50%     26.09% |          84      1.88%     27.97% |         129      2.88%     30.85% |        2231     49.84%     80.70% |         225      5.03%     85.72% |         496     11.08%     96.81% |         143      3.19%    100.00% (Unspecified)
board.cache_hierarchy.ruby_system.L1Cache_Controller.M_I.Load::total         4476                       (Unspecified)
board.cache_hierarchy.ruby_system.L1Cache_Controller.M_I.Ifetch |         183     29.33%     29.33% |          69     11.06%     40.38% |          17      2.72%     43.11% |          40      6.41%     49.52% |          91     14.58%     64.10% |          61      9.78%     73.88% |         111     17.79%     91.67% |          52      8.33%    100.00% (Unspecified)
board.cache_hierarchy.ruby_system.L1Cache_Controller.M_I.Ifetch::total          624                       (Unspecified)
board.cache_hierarchy.ruby_system.L1Cache_Controller.M_I.Store |          73     13.67%     13.67% |         113     21.16%     34.83% |          22      4.12%     38.95% |          25      4.68%     43.63% |         187     35.02%     78.65% |          10      1.87%     80.52% |          92     17.23%     97.75% |          12      2.25%    100.00% (Unspecified)
board.cache_hierarchy.ruby_system.L1Cache_Controller.M_I.Store::total          534                       (Unspecified)
board.cache_hierarchy.ruby_system.L1Cache_Controller.M_I.Inv |          32      9.64%      9.64% |          29      8.73%     18.37% |          39     11.75%     30.12% |          45     13.55%     43.67% |          71     21.39%     65.06% |          30      9.04%     74.10% |          41     12.35%     86.45% |          45     13.55%    100.00% (Unspecified)
board.cache_hierarchy.ruby_system.L1Cache_Controller.M_I.Inv::total          332                       (Unspecified)
board.cache_hierarchy.ruby_system.L1Cache_Controller.M_I.Fwd_GETX |           0      0.00%      0.00% |           0      0.00%      0.00% |           0      0.00%      0.00% |           0      0.00%      0.00% |           1     25.00%     25.00% |           1     25.00%     50.00% |           1     25.00%     75.00% |           1     25.00%    100.00% (Unspecified)
board.cache_hierarchy.ruby_system.L1Cache_Controller.M_I.Fwd_GETX::total            4                       (Unspecified)
board.cache_hierarchy.ruby_system.L1Cache_Controller.M_I.Fwd_GETS |           2     12.50%     12.50% |           0      0.00%     12.50% |           4     25.00%     37.50% |           4     25.00%     62.50% |           1      6.25%     68.75% |           1      6.25%     75.00% |           1      6.25%     81.25% |           3     18.75%    100.00% (Unspecified)
board.cache_hierarchy.ruby_system.L1Cache_Controller.M_I.Fwd_GETS::total           16                       (Unspecified)
board.cache_hierarchy.ruby_system.L1Cache_Controller.M_I.Fwd_GET_INSTR |           0      0.00%      0.00% |           0      0.00%      0.00% |           0      0.00%      0.00% |           0      0.00%      0.00% |           0      0.00%      0.00% |           0      0.00%      0.00% |           0      0.00%      0.00% |           1    100.00%    100.00% (Unspecified)
board.cache_hierarchy.ruby_system.L1Cache_Controller.M_I.Fwd_GET_INSTR::total            1                       (Unspecified)
board.cache_hierarchy.ruby_system.L1Cache_Controller.M_I.WB_Ack |    11232205     30.85%     30.85% |     2740975      7.53%     38.38% |      940920      2.58%     40.97% |     1146650      3.15%     44.12% |    15114294     41.52%     85.64% |     1217575      3.34%     88.98% |     3281916      9.02%     98.00% |      728784      2.00%    100.00% (Unspecified)
board.cache_hierarchy.ruby_system.L1Cache_Controller.M_I.WB_Ack::total     36403319                       (Unspecified)
board.cache_hierarchy.ruby_system.L1Cache_Controller.SINK_WB_ACK.WB_Ack |          34      9.63%      9.63% |          29      8.22%     17.85% |          43     12.18%     30.03% |          49     13.88%     43.91% |          73     20.68%     64.59% |          32      9.07%     73.65% |          43     12.18%     85.84% |          50     14.16%    100.00% (Unspecified)
board.cache_hierarchy.ruby_system.L1Cache_Controller.SINK_WB_ACK.WB_Ack::total          353                       (Unspecified)
board.cache_hierarchy.ruby_system.L2Cache_Controller.L1_GET_INSTR     44318281      0.00%      0.00% (Unspecified)
board.cache_hierarchy.ruby_system.L2Cache_Controller.L1_GETS     34102731      0.00%      0.00% (Unspecified)
board.cache_hierarchy.ruby_system.L2Cache_Controller.L1_GETX     12021856      0.00%      0.00% (Unspecified)
board.cache_hierarchy.ruby_system.L2Cache_Controller.L1_UPGRADE       653401      0.00%      0.00% (Unspecified)
board.cache_hierarchy.ruby_system.L2Cache_Controller.L1_PUTX     36403355      0.00%      0.00% (Unspecified)
board.cache_hierarchy.ruby_system.L2Cache_Controller.L1_PUTX_old          656      0.00%      0.00% (Unspecified)
board.cache_hierarchy.ruby_system.L2Cache_Controller.L2_Replacement     11252449      0.00%      0.00% (Unspecified)
board.cache_hierarchy.ruby_system.L2Cache_Controller.L2_Replacement_clean     27381268      0.00%      0.00% (Unspecified)
board.cache_hierarchy.ruby_system.L2Cache_Controller.Mem_Data     38667471      0.00%      0.00% (Unspecified)
board.cache_hierarchy.ruby_system.L2Cache_Controller.Mem_Ack     38659279      0.00%      0.00% (Unspecified)
board.cache_hierarchy.ruby_system.L2Cache_Controller.WB_Data      3466033      0.00%      0.00% (Unspecified)
board.cache_hierarchy.ruby_system.L2Cache_Controller.WB_Data_clean       500380      0.00%      0.00% (Unspecified)
board.cache_hierarchy.ruby_system.L2Cache_Controller.Ack      5988811      0.00%      0.00% (Unspecified)
board.cache_hierarchy.ruby_system.L2Cache_Controller.Ack_all     14081582      0.00%      0.00% (Unspecified)
board.cache_hierarchy.ruby_system.L2Cache_Controller.Unblock      1167968      0.00%      0.00% (Unspecified)
board.cache_hierarchy.ruby_system.L2Cache_Controller.Exclusive_Unblock     43492011      0.00%      0.00% (Unspecified)
board.cache_hierarchy.ruby_system.L2Cache_Controller.MEM_Inv        51126      0.00%      0.00% (Unspecified)
board.cache_hierarchy.ruby_system.L2Cache_Controller.NP.L1_GET_INSTR     10742390      0.00%      0.00% (Unspecified)
board.cache_hierarchy.ruby_system.L2Cache_Controller.NP.L1_GETS     18436504      0.00%      0.00% (Unspecified)
board.cache_hierarchy.ruby_system.L2Cache_Controller.NP.L1_GETX      9488578      0.00%      0.00% (Unspecified)
board.cache_hierarchy.ruby_system.L2Cache_Controller.NP.L1_PUTX_old          321      0.00%      0.00% (Unspecified)
board.cache_hierarchy.ruby_system.L2Cache_Controller.SS.L1_GET_INSTR     33465249      0.00%      0.00% (Unspecified)
board.cache_hierarchy.ruby_system.L2Cache_Controller.SS.L1_GETS      1921150      0.00%      0.00% (Unspecified)
board.cache_hierarchy.ruby_system.L2Cache_Controller.SS.L1_GETX        21428      0.00%      0.00% (Unspecified)
board.cache_hierarchy.ruby_system.L2Cache_Controller.SS.L1_UPGRADE       641067      0.00%      0.00% (Unspecified)
board.cache_hierarchy.ruby_system.L2Cache_Controller.SS.L1_PUTX           17      0.00%      0.00% (Unspecified)
board.cache_hierarchy.ruby_system.L2Cache_Controller.SS.L2_Replacement        69168      0.00%      0.00% (Unspecified)
board.cache_hierarchy.ruby_system.L2Cache_Controller.SS.L2_Replacement_clean     11212097      0.00%      0.00% (Unspecified)
board.cache_hierarchy.ruby_system.L2Cache_Controller.SS.MEM_Inv          259      0.00%      0.00% (Unspecified)
board.cache_hierarchy.ruby_system.L2Cache_Controller.M.L1_GET_INSTR         1045      0.00%      0.00% (Unspecified)
board.cache_hierarchy.ruby_system.L2Cache_Controller.M.L1_GETS     12457483      0.00%      0.00% (Unspecified)
board.cache_hierarchy.ruby_system.L2Cache_Controller.M.L1_GETX      2162504      0.00%      0.00% (Unspecified)
board.cache_hierarchy.ruby_system.L2Cache_Controller.M.L2_Replacement     10908873      0.00%      0.00% (Unspecified)
board.cache_hierarchy.ruby_system.L2Cache_Controller.M.L2_Replacement_clean     10851325      0.00%      0.00% (Unspecified)
board.cache_hierarchy.ruby_system.L2Cache_Controller.M.MEM_Inv        19054      0.00%      0.00% (Unspecified)
board.cache_hierarchy.ruby_system.L2Cache_Controller.MT.L1_GET_INSTR           61      0.00%      0.00% (Unspecified)
board.cache_hierarchy.ruby_system.L2Cache_Controller.MT.L1_GETS      1167907      0.00%      0.00% (Unspecified)
board.cache_hierarchy.ruby_system.L2Cache_Controller.MT.L1_GETX       321022      0.00%      0.00% (Unspecified)
board.cache_hierarchy.ruby_system.L2Cache_Controller.MT.L1_PUTX     36403319      0.00%      0.00% (Unspecified)
board.cache_hierarchy.ruby_system.L2Cache_Controller.MT.L1_PUTX_old            4      0.00%      0.00% (Unspecified)
board.cache_hierarchy.ruby_system.L2Cache_Controller.MT.L2_Replacement       274408      0.00%      0.00% (Unspecified)
board.cache_hierarchy.ruby_system.L2Cache_Controller.MT.L2_Replacement_clean      5317846      0.00%      0.00% (Unspecified)
board.cache_hierarchy.ruby_system.L2Cache_Controller.MT.MEM_Inv         6250      0.00%      0.00% (Unspecified)
board.cache_hierarchy.ruby_system.L2Cache_Controller.M_I.L1_GET_INSTR         4111      0.00%      0.00% (Unspecified)
board.cache_hierarchy.ruby_system.L2Cache_Controller.M_I.L1_GETS         9258      0.00%      0.00% (Unspecified)
board.cache_hierarchy.ruby_system.L2Cache_Controller.M_I.L1_GETX         3611      0.00%      0.00% (Unspecified)
board.cache_hierarchy.ruby_system.L2Cache_Controller.M_I.L1_PUTX_old           11      0.00%      0.00% (Unspecified)
board.cache_hierarchy.ruby_system.L2Cache_Controller.M_I.Mem_Ack     38659279      0.00%      0.00% (Unspecified)
board.cache_hierarchy.ruby_system.L2Cache_Controller.M_I.MEM_Inv        19054      0.00%      0.00% (Unspecified)
board.cache_hierarchy.ruby_system.L2Cache_Controller.MT_I.L1_GETX            1      0.00%      0.00% (Unspecified)
board.cache_hierarchy.ruby_system.L2Cache_Controller.MT_I.L1_PUTX_old           16      0.00%      0.00% (Unspecified)
board.cache_hierarchy.ruby_system.L2Cache_Controller.MT_I.WB_Data       240216      0.00%      0.00% (Unspecified)
board.cache_hierarchy.ruby_system.L2Cache_Controller.MT_I.WB_Data_clean            5      0.00%      0.00% (Unspecified)
board.cache_hierarchy.ruby_system.L2Cache_Controller.MT_I.Ack_all        40437      0.00%      0.00% (Unspecified)
board.cache_hierarchy.ruby_system.L2Cache_Controller.MT_I.MEM_Inv         6250      0.00%      0.00% (Unspecified)
board.cache_hierarchy.ruby_system.L2Cache_Controller.MCT_I.L1_GETS           10      0.00%      0.00% (Unspecified)
board.cache_hierarchy.ruby_system.L2Cache_Controller.MCT_I.L1_GETX            2      0.00%      0.00% (Unspecified)
board.cache_hierarchy.ruby_system.L2Cache_Controller.MCT_I.L1_PUTX_old          304      0.00%      0.00% (Unspecified)
board.cache_hierarchy.ruby_system.L2Cache_Controller.MCT_I.WB_Data      2558058      0.00%      0.00% (Unspecified)
board.cache_hierarchy.ruby_system.L2Cache_Controller.MCT_I.WB_Data_clean          166      0.00%      0.00% (Unspecified)
board.cache_hierarchy.ruby_system.L2Cache_Controller.MCT_I.Ack_all      2759621      0.00%      0.00% (Unspecified)
board.cache_hierarchy.ruby_system.L2Cache_Controller.I_I.L1_GET_INSTR          212      0.00%      0.00% (Unspecified)
board.cache_hierarchy.ruby_system.L2Cache_Controller.I_I.L1_GETS           26      0.00%      0.00% (Unspecified)
board.cache_hierarchy.ruby_system.L2Cache_Controller.I_I.Ack      5895803      0.00%      0.00% (Unspecified)
board.cache_hierarchy.ruby_system.L2Cache_Controller.I_I.Ack_all     11212097      0.00%      0.00% (Unspecified)
board.cache_hierarchy.ruby_system.L2Cache_Controller.S_I.L1_GETS            2      0.00%      0.00% (Unspecified)
board.cache_hierarchy.ruby_system.L2Cache_Controller.S_I.L1_GETX            1      0.00%      0.00% (Unspecified)
board.cache_hierarchy.ruby_system.L2Cache_Controller.S_I.Ack        93008      0.00%      0.00% (Unspecified)
board.cache_hierarchy.ruby_system.L2Cache_Controller.S_I.Ack_all        69427      0.00%      0.00% (Unspecified)
board.cache_hierarchy.ruby_system.L2Cache_Controller.S_I.MEM_Inv          259      0.00%      0.00% (Unspecified)
board.cache_hierarchy.ruby_system.L2Cache_Controller.ISS.L1_GET_INSTR            1      0.00%      0.00% (Unspecified)
board.cache_hierarchy.ruby_system.L2Cache_Controller.ISS.L1_GETS        36574      0.00%      0.00% (Unspecified)
board.cache_hierarchy.ruby_system.L2Cache_Controller.ISS.L1_GETX           37      0.00%      0.00% (Unspecified)
board.cache_hierarchy.ruby_system.L2Cache_Controller.ISS.Mem_Data     18399929      0.00%      0.00% (Unspecified)
board.cache_hierarchy.ruby_system.L2Cache_Controller.IS.L1_GET_INSTR       105212      0.00%      0.00% (Unspecified)
board.cache_hierarchy.ruby_system.L2Cache_Controller.IS.L1_GETS        17222      0.00%      0.00% (Unspecified)
board.cache_hierarchy.ruby_system.L2Cache_Controller.IS.L1_GETX            2      0.00%      0.00% (Unspecified)
board.cache_hierarchy.ruby_system.L2Cache_Controller.IS.Mem_Data     10778964      0.00%      0.00% (Unspecified)
board.cache_hierarchy.ruby_system.L2Cache_Controller.IM.L1_GETS           27      0.00%      0.00% (Unspecified)
board.cache_hierarchy.ruby_system.L2Cache_Controller.IM.L1_GETX         4596      0.00%      0.00% (Unspecified)
board.cache_hierarchy.ruby_system.L2Cache_Controller.IM.Mem_Data      9488578      0.00%      0.00% (Unspecified)
board.cache_hierarchy.ruby_system.L2Cache_Controller.SS_MB.L1_GETS        21257      0.00%      0.00% (Unspecified)
board.cache_hierarchy.ruby_system.L2Cache_Controller.SS_MB.L1_GETX         5491      0.00%      0.00% (Unspecified)
board.cache_hierarchy.ruby_system.L2Cache_Controller.SS_MB.L1_UPGRADE         9236      0.00%      0.00% (Unspecified)
board.cache_hierarchy.ruby_system.L2Cache_Controller.SS_MB.Exclusive_Unblock       662495      0.00%      0.00% (Unspecified)
board.cache_hierarchy.ruby_system.L2Cache_Controller.MT_MB.L1_GETS        21524      0.00%      0.00% (Unspecified)
board.cache_hierarchy.ruby_system.L2Cache_Controller.MT_MB.L1_GETX        10834      0.00%      0.00% (Unspecified)
board.cache_hierarchy.ruby_system.L2Cache_Controller.MT_MB.L1_PUTX            4      0.00%      0.00% (Unspecified)
board.cache_hierarchy.ruby_system.L2Cache_Controller.MT_MB.Exclusive_Unblock     42829516      0.00%      0.00% (Unspecified)
board.cache_hierarchy.ruby_system.L2Cache_Controller.MT_IIB.L1_GETS        12637      0.00%      0.00% (Unspecified)
board.cache_hierarchy.ruby_system.L2Cache_Controller.MT_IIB.L1_GETX         3559      0.00%      0.00% (Unspecified)
board.cache_hierarchy.ruby_system.L2Cache_Controller.MT_IIB.L1_UPGRADE            4      0.00%      0.00% (Unspecified)
board.cache_hierarchy.ruby_system.L2Cache_Controller.MT_IIB.L1_PUTX           15      0.00%      0.00% (Unspecified)
board.cache_hierarchy.ruby_system.L2Cache_Controller.MT_IIB.WB_Data       662264      0.00%      0.00% (Unspecified)
board.cache_hierarchy.ruby_system.L2Cache_Controller.MT_IIB.WB_Data_clean       495086      0.00%      0.00% (Unspecified)
board.cache_hierarchy.ruby_system.L2Cache_Controller.MT_IIB.Unblock        10618      0.00%      0.00% (Unspecified)
board.cache_hierarchy.ruby_system.L2Cache_Controller.MT_IB.L1_GETS            1      0.00%      0.00% (Unspecified)
board.cache_hierarchy.ruby_system.L2Cache_Controller.MT_IB.WB_Data         5495      0.00%      0.00% (Unspecified)
board.cache_hierarchy.ruby_system.L2Cache_Controller.MT_IB.WB_Data_clean         5123      0.00%      0.00% (Unspecified)
board.cache_hierarchy.ruby_system.L2Cache_Controller.MT_SB.L1_GETS         1149      0.00%      0.00% (Unspecified)
board.cache_hierarchy.ruby_system.L2Cache_Controller.MT_SB.L1_GETX          190      0.00%      0.00% (Unspecified)
board.cache_hierarchy.ruby_system.L2Cache_Controller.MT_SB.L1_UPGRADE         3094      0.00%      0.00% (Unspecified)
board.cache_hierarchy.ruby_system.L2Cache_Controller.MT_SB.Unblock      1157350      0.00%      0.00% (Unspecified)
board.cache_hierarchy.ruby_system.RequestType.LD.latency_hist_seqr::bucket_size          512                       (Unspecified)
board.cache_hierarchy.ruby_system.RequestType.LD.latency_hist_seqr::max_bucket         5119                       (Unspecified)
board.cache_hierarchy.ruby_system.RequestType.LD.latency_hist_seqr::samples   1481997522                       (Unspecified)
board.cache_hierarchy.ruby_system.RequestType.LD.latency_hist_seqr::mean     4.235444                       (Unspecified)
board.cache_hierarchy.ruby_system.RequestType.LD.latency_hist_seqr::gmean     1.101179                       (Unspecified)
board.cache_hierarchy.ruby_system.RequestType.LD.latency_hist_seqr::stdev    31.818421                       (Unspecified)
board.cache_hierarchy.ruby_system.RequestType.LD.latency_hist_seqr |  1480848312     99.92%     99.92% |     1067018      0.07%     99.99% |       75194      0.01%    100.00% |        6379      0.00%    100.00% |         519      0.00%    100.00% |          95      0.00%    100.00% |           4      0.00%    100.00% |           1      0.00%    100.00% |           0      0.00%    100.00% |           0      0.00%    100.00% (Unspecified)
board.cache_hierarchy.ruby_system.RequestType.LD.latency_hist_seqr::total   1481997522                       (Unspecified)
board.cache_hierarchy.ruby_system.RequestType.LD.hit_latency_hist_seqr::bucket_size            1                       (Unspecified)
board.cache_hierarchy.ruby_system.RequestType.LD.hit_latency_hist_seqr::max_bucket            9                       (Unspecified)
board.cache_hierarchy.ruby_system.RequestType.LD.hit_latency_hist_seqr::samples   1447960682                       (Unspecified)
board.cache_hierarchy.ruby_system.RequestType.LD.hit_latency_hist_seqr::mean     1.000590                       (Unspecified)
board.cache_hierarchy.ruby_system.RequestType.LD.hit_latency_hist_seqr::gmean     1.000409                       (Unspecified)
board.cache_hierarchy.ruby_system.RequestType.LD.hit_latency_hist_seqr::stdev     0.024280                       (Unspecified)
board.cache_hierarchy.ruby_system.RequestType.LD.hit_latency_hist_seqr |           0      0.00%      0.00% |  1447107229     99.94%     99.94% |      853240      0.06%    100.00% |         212      0.00%    100.00% |           1      0.00%    100.00% |           0      0.00%    100.00% |           0      0.00%    100.00% |           0      0.00%    100.00% |           0      0.00%    100.00% |           0      0.00%    100.00% (Unspecified)
board.cache_hierarchy.ruby_system.RequestType.LD.hit_latency_hist_seqr::total   1447960682                       (Unspecified)
board.cache_hierarchy.ruby_system.RequestType.LD.miss_latency_hist_seqr::bucket_size          512                       (Unspecified)
board.cache_hierarchy.ruby_system.RequestType.LD.miss_latency_hist_seqr::max_bucket         5119                       (Unspecified)
board.cache_hierarchy.ruby_system.RequestType.LD.miss_latency_hist_seqr::samples     34036840                       (Unspecified)
board.cache_hierarchy.ruby_system.RequestType.LD.miss_latency_hist_seqr::mean   141.849348                       (Unspecified)
board.cache_hierarchy.ruby_system.RequestType.LD.miss_latency_hist_seqr::gmean    65.311132                       (Unspecified)
board.cache_hierarchy.ruby_system.RequestType.LD.miss_latency_hist_seqr::stdev   157.158006                       (Unspecified)
board.cache_hierarchy.ruby_system.RequestType.LD.miss_latency_hist_seqr |    32887630     96.62%     96.62% |     1067018      3.13%     99.76% |       75194      0.22%     99.98% |        6379      0.02%    100.00% |         519      0.00%    100.00% |          95      0.00%    100.00% |           4      0.00%    100.00% |           1      0.00%    100.00% |           0      0.00%    100.00% |           0      0.00%    100.00% (Unspecified)
board.cache_hierarchy.ruby_system.RequestType.LD.miss_latency_hist_seqr::total     34036840                       (Unspecified)
board.cache_hierarchy.ruby_system.RequestType.ST.latency_hist_seqr::bucket_size          512                       (Unspecified)
board.cache_hierarchy.ruby_system.RequestType.ST.latency_hist_seqr::max_bucket         5119                       (Unspecified)
board.cache_hierarchy.ruby_system.RequestType.ST.latency_hist_seqr::samples    687821103                       (Unspecified)
board.cache_hierarchy.ruby_system.RequestType.ST.latency_hist_seqr::mean     3.679231                       (Unspecified)
board.cache_hierarchy.ruby_system.RequestType.ST.latency_hist_seqr::gmean     1.089843                       (Unspecified)
board.cache_hierarchy.ruby_system.RequestType.ST.latency_hist_seqr::stdev    27.605004                       (Unspecified)
board.cache_hierarchy.ruby_system.RequestType.ST.latency_hist_seqr |   687424041     99.94%     99.94% |      370833      0.05%    100.00% |       24031      0.00%    100.00% |        1964      0.00%    100.00% |         190      0.00%    100.00% |          39      0.00%    100.00% |           4      0.00%    100.00% |           1      0.00%    100.00% |           0      0.00%    100.00% |           0      0.00%    100.00% (Unspecified)
board.cache_hierarchy.ruby_system.RequestType.ST.latency_hist_seqr::total    687821103                       (Unspecified)
board.cache_hierarchy.ruby_system.RequestType.ST.hit_latency_hist_seqr::bucket_size          256                       (Unspecified)
board.cache_hierarchy.ruby_system.RequestType.ST.hit_latency_hist_seqr::max_bucket         2559                       (Unspecified)
board.cache_hierarchy.ruby_system.RequestType.ST.hit_latency_hist_seqr::samples    676977728                       (Unspecified)
board.cache_hierarchy.ruby_system.RequestType.ST.hit_latency_hist_seqr::mean     1.037351                       (Unspecified)
board.cache_hierarchy.ruby_system.RequestType.ST.hit_latency_hist_seqr::gmean     1.011739                       (Unspecified)
board.cache_hierarchy.ruby_system.RequestType.ST.hit_latency_hist_seqr::stdev     2.519235                       (Unspecified)
board.cache_hierarchy.ruby_system.RequestType.ST.hit_latency_hist_seqr |   676964666    100.00%    100.00% |       10240      0.00%    100.00% |        2018      0.00%    100.00% |         567      0.00%    100.00% |         157      0.00%    100.00% |          63      0.00%    100.00% |          11      0.00%    100.00% |           1      0.00%    100.00% |           4      0.00%    100.00% |           1      0.00%    100.00% (Unspecified)
board.cache_hierarchy.ruby_system.RequestType.ST.hit_latency_hist_seqr::total    676977728                       (Unspecified)
board.cache_hierarchy.ruby_system.RequestType.ST.miss_latency_hist_seqr::bucket_size          512                       (Unspecified)
board.cache_hierarchy.ruby_system.RequestType.ST.miss_latency_hist_seqr::max_bucket         5119                       (Unspecified)
board.cache_hierarchy.ruby_system.RequestType.ST.miss_latency_hist_seqr::samples     10843375                       (Unspecified)
board.cache_hierarchy.ruby_system.RequestType.ST.miss_latency_hist_seqr::mean   168.618101                       (Unspecified)
board.cache_hierarchy.ruby_system.RequestType.ST.miss_latency_hist_seqr::gmean   113.148178                       (Unspecified)
board.cache_hierarchy.ruby_system.RequestType.ST.miss_latency_hist_seqr::stdev   142.481460                       (Unspecified)
board.cache_hierarchy.ruby_system.RequestType.ST.miss_latency_hist_seqr |    10449135     96.36%     96.36% |      368248      3.40%     99.76% |       23811      0.22%     99.98% |        1952      0.02%    100.00% |         185      0.00%    100.00% |          39      0.00%    100.00% |           4      0.00%    100.00% |           1      0.00%    100.00% |           0      0.00%    100.00% |           0      0.00%    100.00% (Unspecified)
board.cache_hierarchy.ruby_system.RequestType.ST.miss_latency_hist_seqr::total     10843375                       (Unspecified)
board.cache_hierarchy.ruby_system.RequestType.IFETCH.latency_hist_seqr::bucket_size          512                       (Unspecified)
board.cache_hierarchy.ruby_system.RequestType.IFETCH.latency_hist_seqr::max_bucket         5119                       (Unspecified)
board.cache_hierarchy.ruby_system.RequestType.IFETCH.latency_hist_seqr::samples    961139867                       (Unspecified)
board.cache_hierarchy.ruby_system.RequestType.IFETCH.latency_hist_seqr::mean     4.065498                       (Unspecified)
board.cache_hierarchy.ruby_system.RequestType.IFETCH.latency_hist_seqr::gmean     1.162203                       (Unspecified)
board.cache_hierarchy.ruby_system.RequestType.IFETCH.latency_hist_seqr::stdev    28.768331                       (Unspecified)
board.cache_hierarchy.ruby_system.RequestType.IFETCH.latency_hist_seqr |   960643150     99.95%     99.95% |      447931      0.05%     99.99% |       45538      0.00%    100.00% |        2828      0.00%    100.00% |         349      0.00%    100.00% |          68      0.00%    100.00% |           3      0.00%    100.00% |           0      0.00%    100.00% |           0      0.00%    100.00% |           0      0.00%    100.00% (Unspecified)
board.cache_hierarchy.ruby_system.RequestType.IFETCH.latency_hist_seqr::total    961139867                       (Unspecified)
board.cache_hierarchy.ruby_system.RequestType.IFETCH.hit_latency_hist_seqr::bucket_size            1                       (Unspecified)
board.cache_hierarchy.ruby_system.RequestType.IFETCH.hit_latency_hist_seqr::max_bucket            9                       (Unspecified)
board.cache_hierarchy.ruby_system.RequestType.IFETCH.hit_latency_hist_seqr::samples    916825910                       (Unspecified)
board.cache_hierarchy.ruby_system.RequestType.IFETCH.hit_latency_hist_seqr::mean     1.000011                       (Unspecified)
board.cache_hierarchy.ruby_system.RequestType.IFETCH.hit_latency_hist_seqr::gmean     1.000008                       (Unspecified)
board.cache_hierarchy.ruby_system.RequestType.IFETCH.hit_latency_hist_seqr::stdev     0.003306                       (Unspecified)
board.cache_hierarchy.ruby_system.RequestType.IFETCH.hit_latency_hist_seqr |           0      0.00%      0.00% |   916815899    100.00%    100.00% |       10008      0.00%    100.00% |           3      0.00%    100.00% |           0      0.00%    100.00% |           0      0.00%    100.00% |           0      0.00%    100.00% |           0      0.00%    100.00% |           0      0.00%    100.00% |           0      0.00%    100.00% (Unspecified)
board.cache_hierarchy.ruby_system.RequestType.IFETCH.hit_latency_hist_seqr::total    916825910                       (Unspecified)
board.cache_hierarchy.ruby_system.RequestType.IFETCH.miss_latency_hist_seqr::bucket_size          512                       (Unspecified)
board.cache_hierarchy.ruby_system.RequestType.IFETCH.miss_latency_hist_seqr::max_bucket         5119                       (Unspecified)
board.cache_hierarchy.ruby_system.RequestType.IFETCH.miss_latency_hist_seqr::samples     44313957                       (Unspecified)
board.cache_hierarchy.ruby_system.RequestType.IFETCH.miss_latency_hist_seqr::mean    67.488366                       (Unspecified)
board.cache_hierarchy.ruby_system.RequestType.IFETCH.miss_latency_hist_seqr::gmean    26.052799                       (Unspecified)
board.cache_hierarchy.ruby_system.RequestType.IFETCH.miss_latency_hist_seqr::stdev   117.190316                       (Unspecified)
board.cache_hierarchy.ruby_system.RequestType.IFETCH.miss_latency_hist_seqr |    43817240     98.88%     98.88% |      447931      1.01%     99.89% |       45538      0.10%     99.99% |        2828      0.01%    100.00% |         349      0.00%    100.00% |          68      0.00%    100.00% |           3      0.00%    100.00% |           0      0.00%    100.00% |           0      0.00%    100.00% |           0      0.00%    100.00% (Unspecified)
board.cache_hierarchy.ruby_system.RequestType.IFETCH.miss_latency_hist_seqr::total     44313957                       (Unspecified)
board.cache_hierarchy.ruby_system.RequestType.RMW_Read.latency_hist_seqr::bucket_size          512                       (Unspecified)
board.cache_hierarchy.ruby_system.RequestType.RMW_Read.latency_hist_seqr::max_bucket         5119                       (Unspecified)
board.cache_hierarchy.ruby_system.RequestType.RMW_Read.latency_hist_seqr::samples     29922453                       (Unspecified)
board.cache_hierarchy.ruby_system.RequestType.RMW_Read.latency_hist_seqr::mean    13.058743                       (Unspecified)
board.cache_hierarchy.ruby_system.RequestType.RMW_Read.latency_hist_seqr::gmean     1.414948                       (Unspecified)
board.cache_hierarchy.ruby_system.RequestType.RMW_Read.latency_hist_seqr::stdev    68.907913                       (Unspecified)
board.cache_hierarchy.ruby_system.RequestType.RMW_Read.latency_hist_seqr |    29673506     99.17%     99.17% |      242009      0.81%     99.98% |        5807      0.02%    100.00% |        1108      0.00%    100.00% |          16      0.00%    100.00% |           7      0.00%    100.00% |           0      0.00%    100.00% |           0      0.00%    100.00% |           0      0.00%    100.00% |           0      0.00%    100.00% (Unspecified)
board.cache_hierarchy.ruby_system.RequestType.RMW_Read.latency_hist_seqr::total     29922453                       (Unspecified)
board.cache_hierarchy.ruby_system.RequestType.RMW_Read.hit_latency_hist_seqr::bucket_size          256                       (Unspecified)
board.cache_hierarchy.ruby_system.RequestType.RMW_Read.hit_latency_hist_seqr::max_bucket         2559                       (Unspecified)
board.cache_hierarchy.ruby_system.RequestType.RMW_Read.hit_latency_hist_seqr::samples     28936758                       (Unspecified)
board.cache_hierarchy.ruby_system.RequestType.RMW_Read.hit_latency_hist_seqr::mean     9.090057                       (Unspecified)
board.cache_hierarchy.ruby_system.RequestType.RMW_Read.hit_latency_hist_seqr::gmean     1.244809                       (Unspecified)
board.cache_hierarchy.ruby_system.RequestType.RMW_Read.hit_latency_hist_seqr::stdev    60.766542                       (Unspecified)
board.cache_hierarchy.ruby_system.RequestType.RMW_Read.hit_latency_hist_seqr |    28658518     99.04%     99.04% |       52957      0.18%     99.22% |      214462      0.74%     99.96% |        5870      0.02%     99.98% |         487      0.00%     99.98% |        3472      0.01%    100.00% |         982      0.00%    100.00% |           9      0.00%    100.00% |           1      0.00%    100.00% |           0      0.00%    100.00% (Unspecified)
board.cache_hierarchy.ruby_system.RequestType.RMW_Read.hit_latency_hist_seqr::total     28936758                       (Unspecified)
board.cache_hierarchy.ruby_system.RequestType.RMW_Read.miss_latency_hist_seqr::bucket_size          512                       (Unspecified)
board.cache_hierarchy.ruby_system.RequestType.RMW_Read.miss_latency_hist_seqr::max_bucket         5119                       (Unspecified)
board.cache_hierarchy.ruby_system.RequestType.RMW_Read.miss_latency_hist_seqr::samples       985695                       (Unspecified)
board.cache_hierarchy.ruby_system.RequestType.RMW_Read.miss_latency_hist_seqr::mean   129.566269                       (Unspecified)
board.cache_hierarchy.ruby_system.RequestType.RMW_Read.miss_latency_hist_seqr::gmean    60.825849                       (Unspecified)
board.cache_hierarchy.ruby_system.RequestType.RMW_Read.miss_latency_hist_seqr::stdev   147.324908                       (Unspecified)
board.cache_hierarchy.ruby_system.RequestType.RMW_Read.miss_latency_hist_seqr |      962031     97.60%     97.60% |       21677      2.20%     99.80% |        1848      0.19%     99.99% |         117      0.01%    100.00% |          15      0.00%    100.00% |           7      0.00%    100.00% |           0      0.00%    100.00% |           0      0.00%    100.00% |           0      0.00%    100.00% |           0      0.00%    100.00% (Unspecified)
board.cache_hierarchy.ruby_system.RequestType.RMW_Read.miss_latency_hist_seqr::total       985695                       (Unspecified)
board.cache_hierarchy.ruby_system.RequestType.Locked_RMW_Read.latency_hist_seqr::bucket_size          512                       (Unspecified)
board.cache_hierarchy.ruby_system.RequestType.Locked_RMW_Read.latency_hist_seqr::max_bucket         5119                       (Unspecified)
board.cache_hierarchy.ruby_system.RequestType.Locked_RMW_Read.latency_hist_seqr::samples      6953992                       (Unspecified)
board.cache_hierarchy.ruby_system.RequestType.Locked_RMW_Read.latency_hist_seqr::mean    12.748966                       (Unspecified)
board.cache_hierarchy.ruby_system.RequestType.Locked_RMW_Read.latency_hist_seqr::gmean     1.553923                       (Unspecified)
board.cache_hierarchy.ruby_system.RequestType.Locked_RMW_Read.latency_hist_seqr::stdev    58.058770                       (Unspecified)
board.cache_hierarchy.ruby_system.RequestType.Locked_RMW_Read.latency_hist_seqr |     6938342     99.77%     99.77% |       14108      0.20%     99.98% |        1439      0.02%    100.00% |          83      0.00%    100.00% |          16      0.00%    100.00% |           3      0.00%    100.00% |           1      0.00%    100.00% |           0      0.00%    100.00% |           0      0.00%    100.00% |           0      0.00%    100.00% (Unspecified)
board.cache_hierarchy.ruby_system.RequestType.Locked_RMW_Read.latency_hist_seqr::total      6953992                       (Unspecified)
board.cache_hierarchy.ruby_system.RequestType.Locked_RMW_Read.hit_latency_hist_seqr::bucket_size          128                       (Unspecified)
board.cache_hierarchy.ruby_system.RequestType.Locked_RMW_Read.hit_latency_hist_seqr::max_bucket         1279                       (Unspecified)
board.cache_hierarchy.ruby_system.RequestType.Locked_RMW_Read.hit_latency_hist_seqr::samples      6148463                       (Unspecified)
board.cache_hierarchy.ruby_system.RequestType.Locked_RMW_Read.hit_latency_hist_seqr::mean     1.006710                       (Unspecified)
board.cache_hierarchy.ruby_system.RequestType.Locked_RMW_Read.hit_latency_hist_seqr::gmean     1.000227                       (Unspecified)
board.cache_hierarchy.ruby_system.RequestType.Locked_RMW_Read.hit_latency_hist_seqr::stdev     1.297778                       (Unspecified)
board.cache_hierarchy.ruby_system.RequestType.Locked_RMW_Read.hit_latency_hist_seqr |     6148348    100.00%    100.00% |          87      0.00%    100.00% |          15      0.00%    100.00% |           4      0.00%    100.00% |           5      0.00%    100.00% |           1      0.00%    100.00% |           2      0.00%    100.00% |           1      0.00%    100.00% |           0      0.00%    100.00% |           0      0.00%    100.00% (Unspecified)
board.cache_hierarchy.ruby_system.RequestType.Locked_RMW_Read.hit_latency_hist_seqr::total      6148463                       (Unspecified)
board.cache_hierarchy.ruby_system.RequestType.Locked_RMW_Read.miss_latency_hist_seqr::bucket_size          512                       (Unspecified)
[...]
board.processor.cores7.core.fetch.nisnDist::5      7766859      2.07%     86.44% # Number of instructions fetched each cycle (Total) (Count)
board.processor.cores7.core.fetch.nisnDist::6      6328717      1.69%     88.13% # Number of instructions fetched each cycle (Total) (Count)
board.processor.cores7.core.fetch.nisnDist::7      3936304      1.05%     89.18% # Number of instructions fetched each cycle (Total) (Count)
board.processor.cores7.core.fetch.nisnDist::8     40614088     10.82%    100.00% # Number of instructions fetched each cycle (Total) (Count)
board.processor.cores7.core.fetch.nisnDist::overflows            0      0.00%    100.00% # Number of instructions fetched each cycle (Total) (Count)
board.processor.cores7.core.fetch.nisnDist::min_value            0                       # Number of instructions fetched each cycle (Total) (Count)
board.processor.cores7.core.fetch.nisnDist::max_value            8                       # Number of instructions fetched each cycle (Total) (Count)
board.processor.cores7.core.fetch.nisnDist::total    375232372                       # Number of instructions fetched each cycle (Total) (Count)
board.processor.cores7.core.fetchStats0.numInsts    213458946                       # Number of instructions fetched (thread level) (Count)
board.processor.cores7.core.fetchStats0.numOps            0                       # Number of ops (including micro ops) fetched (thread level) (Count)
board.processor.cores7.core.fetchStats0.fetchRate     0.448782                       # Number of inst fetches per cycle ((Count/Cycle))
board.processor.cores7.core.fetchStats0.numBranches     62403231                       # Number of branches fetched (Count)
board.processor.cores7.core.fetchStats0.branchRate     0.131198                       # Number of branch fetches per cycle (Ratio)
board.processor.cores7.core.fetchStats0.icacheStallCycles     73156155                       # ICache total stall cycles (Cycle)
board.processor.cores7.core.fetchStats0.numFetchSuspends            0                       # Number of times Execute suspended instruction fetching (Count)
board.processor.cores7.core.iew.idleCycles            0                       # Number of cycles IEW is idle (Cycle)
board.processor.cores7.core.iew.squashCycles      2618531                       # Number of cycles IEW is squashing (Cycle)
board.processor.cores7.core.iew.blockCycles     63602677                       # Number of cycles IEW is blocking (Cycle)
board.processor.cores7.core.iew.unblockCycles     13621405                       # Number of cycles IEW is unblocking (Cycle)
board.processor.cores7.core.iew.dispatchedInsts    414887731                       # Number of instructions dispatched to IQ (Count)
board.processor.cores7.core.iew.dispSquashedInsts       434018                       # Number of squashed instructions skipped by dispatch (Count)
board.processor.cores7.core.iew.dispLoadInsts     52869819                       # Number of dispatched load instructions (Count)
board.processor.cores7.core.iew.dispStoreInsts     31528417                       # Number of dispatched store instructions (Count)
board.processor.cores7.core.iew.dispNonSpecInsts      1874599                       # Number of dispatched non-speculative instructions (Count)
board.processor.cores7.core.iew.iqFullEvents       465249                       # Number of times the IQ has become full, causing a stall (Count)
board.processor.cores7.core.iew.lsqFullEvents     12823237                       # Number of times the LSQ has become full, causing a stall (Count)
board.processor.cores7.core.iew.memOrderViolationEvents       317913                       # Number of memory order violations (Count)
board.processor.cores7.core.iew.predictedTakenIncorrect       897638                       # Number of branches that were predicted taken incorrectly (Count)
board.processor.cores7.core.iew.predictedNotTakenIncorrect      1619614                       # Number of branches that were predicted not taken incorrectly (Count)
board.processor.cores7.core.iew.branchMispredicts      2517252                       # Number of branch mispredicts detected at execute (Count)
board.processor.cores7.core.iew.instsToCommit    385091225                       # Cumulative count of insts sent to commit (Count)
board.processor.cores7.core.iew.writebackCount    384192037                       # Cumulative count of insts written-back (Count)
board.processor.cores7.core.iew.producerInst    265085267                       # Number of instructions producing a value (Count)
board.processor.cores7.core.iew.consumerInst    451658486                       # Number of instructions consuming a value (Count)
board.processor.cores7.core.iew.wbRate       0.807735                       # Insts written-back per cycle ((Count/Cycle))
board.processor.cores7.core.iew.wbFanout     0.586915                       # Average fanout of values written-back ((Count/Count))
board.processor.cores7.core.interrupts.clk_domain.clock         5328                       # Clock period in ticks (Tick)
board.processor.cores7.core.lsq0.forwLoads      5422309                       # Number of loads that had data forwarded from stores (Count)
board.processor.cores7.core.lsq0.squashedLoads      9435726                       # Number of loads squashed (Count)
board.processor.cores7.core.lsq0.ignoredResponses        23292                       # Number of memory responses ignored because the instruction is squashed (Count)
board.processor.cores7.core.lsq0.memOrderViolation       317913                       # Number of memory ordering violations (Count)
board.processor.cores7.core.lsq0.squashedStores      5720954                       # Number of stores squashed (Count)
board.processor.cores7.core.lsq0.rescheduledLoads        34148                       # Number of loads that were rescheduled (Count)
board.processor.cores7.core.lsq0.blockedByCache        39572                       # Number of times an access to memory failed due to the cache being blocked (Count)
board.processor.cores7.core.lsq0.loadToUse::samples     43404276                       # Distribution of cycle latency between the first time a load is issued and its completion (Unspecified)
board.processor.cores7.core.lsq0.loadToUse::mean    12.308736                       # Distribution of cycle latency between the first time a load is issued and its completion (Unspecified)
board.processor.cores7.core.lsq0.loadToUse::stdev    59.011746                       # Distribution of cycle latency between the first time a load is issued and its completion (Unspecified)
board.processor.cores7.core.lsq0.loadToUse::0-9     41089636     94.67%     94.67% # Distribution of cycle latency between the first time a load is issued and its completion (Unspecified)
board.processor.cores7.core.lsq0.loadToUse::10-19       508878      1.17%     95.84% # Distribution of cycle latency between the first time a load is issued and its completion (Unspecified)
board.processor.cores7.core.lsq0.loadToUse::20-29       277413      0.64%     96.48% # Distribution of cycle latency between the first time a load is issued and its completion (Unspecified)
board.processor.cores7.core.lsq0.loadToUse::30-39        50798      0.12%     96.60% # Distribution of cycle latency between the first time a load is issued and its completion (Unspecified)
board.processor.cores7.core.lsq0.loadToUse::40-49        28346      0.07%     96.66% # Distribution of cycle latency between the first time a load is issued and its completion (Unspecified)
board.processor.cores7.core.lsq0.loadToUse::50-59        26721      0.06%     96.72% # Distribution of cycle latency between the first time a load is issued and its completion (Unspecified)
board.processor.cores7.core.lsq0.loadToUse::60-69        15494      0.04%     96.76% # Distribution of cycle latency between the first time a load is issued and its completion (Unspecified)
board.processor.cores7.core.lsq0.loadToUse::70-79        10558      0.02%     96.78% # Distribution of cycle latency between the first time a load is issued and its completion (Unspecified)
board.processor.cores7.core.lsq0.loadToUse::80-89        10535      0.02%     96.81% # Distribution of cycle latency between the first time a load is issued and its completion (Unspecified)
board.processor.cores7.core.lsq0.loadToUse::90-99        12206      0.03%     96.84% # Distribution of cycle latency between the first time a load is issued and its completion (Unspecified)
board.processor.cores7.core.lsq0.loadToUse::100-109        11915      0.03%     96.86% # Distribution of cycle latency between the first time a load is issued and its completion (Unspecified)
board.processor.cores7.core.lsq0.loadToUse::110-119        21215      0.05%     96.91% # Distribution of cycle latency between the first time a load is issued and its completion (Unspecified)
board.processor.cores7.core.lsq0.loadToUse::120-129        25953      0.06%     96.97% # Distribution of cycle latency between the first time a load is issued and its completion (Unspecified)
board.processor.cores7.core.lsq0.loadToUse::130-139        54988      0.13%     97.10% # Distribution of cycle latency between the first time a load is issued and its completion (Unspecified)
board.processor.cores7.core.lsq0.loadToUse::140-149       132781      0.31%     97.40% # Distribution of cycle latency between the first time a load is issued and its completion (Unspecified)
board.processor.cores7.core.lsq0.loadToUse::150-159        47072      0.11%     97.51% # Distribution of cycle latency between the first time a load is issued and its completion (Unspecified)
board.processor.cores7.core.lsq0.loadToUse::160-169        29322      0.07%     97.58% # Distribution of cycle latency between the first time a load is issued and its completion (Unspecified)
board.processor.cores7.core.lsq0.loadToUse::170-179        19255      0.04%     97.62% # Distribution of cycle latency between the first time a load is issued and its completion (Unspecified)
board.processor.cores7.core.lsq0.loadToUse::180-189        57398      0.13%     97.76% # Distribution of cycle latency between the first time a load is issued and its completion (Unspecified)
board.processor.cores7.core.lsq0.loadToUse::190-199        30213      0.07%     97.83% # Distribution of cycle latency between the first time a load is issued and its completion (Unspecified)
board.processor.cores7.core.lsq0.loadToUse::200-209        26629      0.06%     97.89% # Distribution of cycle latency between the first time a load is issued and its completion (Unspecified)
board.processor.cores7.core.lsq0.loadToUse::210-219        30818      0.07%     97.96% # Distribution of cycle latency between the first time a load is issued and its completion (Unspecified)
board.processor.cores7.core.lsq0.loadToUse::220-229       117467      0.27%     98.23% # Distribution of cycle latency between the first time a load is issued and its completion (Unspecified)
board.processor.cores7.core.lsq0.loadToUse::230-239       112951      0.26%     98.49% # Distribution of cycle latency between the first time a load is issued and its completion (Unspecified)
board.processor.cores7.core.lsq0.loadToUse::240-249        72584      0.17%     98.66% # Distribution of cycle latency between the first time a load is issued and its completion (Unspecified)
board.processor.cores7.core.lsq0.loadToUse::250-259        52786      0.12%     98.78% # Distribution of cycle latency between the first time a load is issued and its completion (Unspecified)
board.processor.cores7.core.lsq0.loadToUse::260-269        42247      0.10%     98.88% # Distribution of cycle latency between the first time a load is issued and its completion (Unspecified)
board.processor.cores7.core.lsq0.loadToUse::270-279        35580      0.08%     98.96% # Distribution of cycle latency between the first time a load is issued and its completion (Unspecified)
board.processor.cores7.core.lsq0.loadToUse::280-289        31926      0.07%     99.03% # Distribution of cycle latency between the first time a load is issued and its completion (Unspecified)
board.processor.cores7.core.lsq0.loadToUse::290-299        27795      0.06%     99.10% # Distribution of cycle latency between the first time a load is issued and its completion (Unspecified)
board.processor.cores7.core.lsq0.loadToUse::overflows       392796      0.90%    100.00% # Distribution of cycle latency between the first time a load is issued and its completion (Unspecified)
board.processor.cores7.core.lsq0.loadToUse::min_value            2                       # Distribution of cycle latency between the first time a load is issued and its completion (Unspecified)
board.processor.cores7.core.lsq0.loadToUse::max_value         9688                       # Distribution of cycle latency between the first time a load is issued and its completion (Unspecified)
board.processor.cores7.core.lsq0.loadToUse::total     43404276                       # Distribution of cycle latency between the first time a load is issued and its completion (Unspecified)
board.processor.cores7.core.mmu.dtb.rdAccesses     49809289                       # TLB accesses on read requests (Count)
board.processor.cores7.core.mmu.dtb.wrAccesses     28723023                       # TLB accesses on write requests (Count)
board.processor.cores7.core.mmu.dtb.rdMisses       488912                       # TLB misses on read requests (Count)
board.processor.cores7.core.mmu.dtb.wrMisses       104209                       # TLB misses on write requests (Count)
board.processor.cores7.core.mmu.dtb.walker.power_state.pwrStateResidencyTicks::UNDEFINED 13872823527096                       # Cumulative time (in ticks) in various power states (Tick)
board.processor.cores7.core.mmu.itb.rdAccesses            0                       # TLB accesses on read requests (Count)
board.processor.cores7.core.mmu.itb.wrAccesses     33263356                       # TLB accesses on write requests (Count)
board.processor.cores7.core.mmu.itb.rdMisses            0                       # TLB misses on read requests (Count)
board.processor.cores7.core.mmu.itb.wrMisses       173226                       # TLB misses on write requests (Count)
board.processor.cores7.core.mmu.itb.walker.power_state.pwrStateResidencyTicks::UNDEFINED 13872823527096                       # Cumulative time (in ticks) in various power states (Tick)
board.processor.cores7.core.power_state.numTransitions        27484                       # Number of power state transitions (Count)
board.processor.cores7.core.power_state.ticksClkGated::samples        13743                       # Distribution of time spent in the clock gated state (Tick)
board.processor.cores7.core.power_state.ticksClkGated::mean 997921810.695845                       # Distribution of time spent in the clock gated state (Tick)
board.processor.cores7.core.power_state.ticksClkGated::stdev 4617736646.894064                       # Distribution of time spent in the clock gated state (Tick)
board.processor.cores7.core.power_state.ticksClkGated::1000-5e+10        13742     99.99%     99.99% # Distribution of time spent in the clock gated state (Tick)
board.processor.cores7.core.power_state.ticksClkGated::5e+11-5.5e+11            1      0.01%    100.00% # Distribution of time spent in the clock gated state (Tick)
board.processor.cores7.core.power_state.ticksClkGated::min_value       244090                       # Distribution of time spent in the clock gated state (Tick)
board.processor.cores7.core.power_state.ticksClkGated::max_value 541289136700                       # Distribution of time spent in the clock gated state (Tick)
board.processor.cores7.core.power_state.ticksClkGated::total        13743                       # Distribution of time spent in the clock gated state (Tick)
board.processor.cores7.core.power_state.pwrStateResidencyTicks::ON 158384082703                       # Cumulative time (in ticks) in various power states (Tick)
board.processor.cores7.core.power_state.pwrStateResidencyTicks::CLK_GATED 13714439444393                       # Cumulative time (in ticks) in various power states (Tick)
board.processor.cores7.core.rename.squashCycles      2618531                       # Number of cycles rename is squashing (Cycle)
board.processor.cores7.core.rename.idleCycles     73572264                       # Number of cycles rename is idle (Cycle)
board.processor.cores7.core.rename.blockCycles     97721838                       # Number of cycles rename is blocking (Cycle)
board.processor.cores7.core.rename.serializeStallCycles     60877109                       # count of cycles rename stalled for serializing inst (Cycle)
board.processor.cores7.core.rename.runCycles     62374712                       # Number of cycles rename is running (Cycle)
board.processor.cores7.core.rename.unblockCycles     78067918                       # Number of cycles rename is unblocking (Cycle)
board.processor.cores7.core.rename.renamedInsts    425736094                       # Number of instructions processed by rename (Count)
board.processor.cores7.core.rename.ROBFullEvents      3611809                       # Number of times rename has blocked due to ROB full (Count)
board.processor.cores7.core.rename.IQFullEvents      9500601                       # Number of times rename has blocked due to IQ full (Count)
board.processor.cores7.core.rename.LQFullEvents      6271590                       # Number of times rename has blocked due to LQ full (Count)
board.processor.cores7.core.rename.SQFullEvents     59558136                       # Number of times rename has blocked due to SQ full (Count)
board.processor.cores7.core.rename.fullRegistersEvents         1537                       # Number of times there has been no free registers (Count)
board.processor.cores7.core.rename.renamedOperands    667689031                       # Number of destination operands rename has renamed (Count)
board.processor.cores7.core.rename.lookups   1372621788                       # Number of register rename lookups that rename has made (Count)
board.processor.cores7.core.rename.intLookups    528267915                       # Number of integer rename lookups (Count)
board.processor.cores7.core.rename.fpLookups     15551732                       # Number of floating rename lookups (Count)
board.processor.cores7.core.rename.committedMaps    536045988                       # Number of HB maps that are committed (Count)
board.processor.cores7.core.rename.undoneMaps    131643043                       # Number of HB maps that are undone due to squashing (Count)
board.processor.cores7.core.rename.serializing      1549178                       # count of serializing insts renamed (Count)
board.processor.cores7.core.rename.tempSerializing      1357127                       # count of temporary serializing insts renamed (Count)
board.processor.cores7.core.rename.skidInsts     49512001                       # count of insts added to the skid buffer (Count)
board.processor.cores7.core.rob.reads       759295335                       # The number of ROB reads (Count)
board.processor.cores7.core.rob.writes      839273053                       # The number of ROB writes (Count)
board.processor.cores7.core.thread_0.numInsts    147998307                       # Number of Instructions committed (Count)
board.processor.cores7.core.thread_0.numOps    339970053                       # Number of Ops committed (Count)
board.processor.cores7.core.thread_0.numMemRefs            0                       # Number of Memory References (Count)
board.workload.inst.arm                             0                       # number of arm instructions executed (Count)
board.workload.inst.quiesce                         0                       # number of quiesce instructions executed (Count)

---------- End Simulation Statistics   ----------
